                                  MODFLOW-NWT-SWR1 
      U.S. GEOLOGICAL SURVEY MODULAR FINITE-DIFFERENCE GROUNDWATER-FLOW MODEL
                            VERSION 1.0.9 07/01/2014
                    BASED ON MODFLOW-2005 VERSION 1.11.00 08/30/2013

 LIST FILE: flopy_model.list
                         UNIT    2

 OPENING flopy_model.nwt
 FILE TYPE:NWT   UNIT   32   STATUS:OLD    
 FORMAT:FORMATTED              ACCESS:SEQUENTIAL          

 OPENING flopy_model.dis
 FILE TYPE:DIS   UNIT   11   STATUS:OLD    
 FORMAT:FORMATTED              ACCESS:SEQUENTIAL          

 OPENING flopy_model.bas
 FILE TYPE:BAS6   UNIT   13   STATUS:OLD    
 FORMAT:FORMATTED              ACCESS:SEQUENTIAL          

 OPENING flopy_model.upw
 FILE TYPE:UPW   UNIT   31   STATUS:OLD    
 FORMAT:FORMATTED              ACCESS:SEQUENTIAL          

 OPENING flopy_model.wel
 FILE TYPE:WEL   UNIT   20   STATUS:OLD    
 FORMAT:FORMATTED              ACCESS:SEQUENTIAL          

 OPENING flopy_model.riv
 FILE TYPE:RIV   UNIT   18   STATUS:OLD    
 FORMAT:FORMATTED              ACCESS:SEQUENTIAL          

 OPENING flopy_model.rch
 FILE TYPE:RCH   UNIT   19   STATUS:OLD    
 FORMAT:FORMATTED              ACCESS:SEQUENTIAL          

 OPENING flopy_model.oc
 FILE TYPE:OC   UNIT   14   STATUS:OLD    
 FORMAT:FORMATTED              ACCESS:SEQUENTIAL          

 OPENING flopy_model.hds
 FILE TYPE:DATA(BINARY)   UNIT   51   STATUS:REPLACE
 FORMAT:UNFORMATTED            ACCESS:STREAM              

 OPENING flopy_model.ddn
 FILE TYPE:DATA(BINARY)   UNIT   52   STATUS:REPLACE
 FORMAT:UNFORMATTED            ACCESS:STREAM              

 OPENING flopy_model.cbc
 FILE TYPE:DATA(BINARY)   UNIT   53   STATUS:REPLACE
 FORMAT:UNFORMATTED            ACCESS:STREAM              

 BAS -- BASIC PACKAGE, VERSION 7, 5/2/2005 INPUT READ FROM UNIT   13

 MODFLOW was compiled using mixed precision
 Precision of REAL variables:           6
 Precision of DOUBLE PRECISION variables:          15

 DISCRETIZATION INPUT DATA READ FROM UNIT   11
 # Discretization file for MODFLOW, generated by Flopy.
    1 LAYERS        10 ROWS        20 COLUMNS
    3 STRESS PERIOD(S) IN SIMULATION
 MODEL TIME UNIT IS DAYS
 MODEL LENGTH UNIT IS METERS
  Confining bed flag for each layer:
   0

                     DELR =   2857.99    

                     DELC =   2616.01    

 TOP ELEVATION OF LAYER 1 =   0.00000    

   MODEL LAYER BOTTOM EL. =  -50.0000     FOR LAYER   1


 STRESS PERIOD     LENGTH       TIME STEPS     MULTIPLIER FOR DELT    SS FLAG
 ----------------------------------------------------------------------------
        1         1.000000          1                    1.000         SS
        2         100.0000        100                    1.000         TR
        3         100.0000        100                    1.000         TR

 COMBINED STEADY-STATE AND TRANSIENT SIMULATION




 # Basic package file for MODFLOW, generated by Flopy.                           
 THE FREE FORMAT OPTION HAS BEEN SELECTED



                     BOUNDARY ARRAY FOR LAYER   1
 READING ON UNIT   13 WITH FORMAT: (20I10)             

 AQUIFER HEAD WILL BE SET TO   0.0000     AT ALL NO-FLOW NODES (IBOUND=0).



                       INITIAL HEAD FOR LAYER   1
 READING ON UNIT   13 WITH FORMAT: (20G15.6)           
 # Output control package file for MODFLOW, generated by Flopy. Output control by words option

 OUTPUT CONTROL IS SPECIFIED ONLY AT TIME STEPS FOR WHICH OUTPUT IS DESIRED
 HEAD PRINT FORMAT CODE IS   0    DRAWDOWN PRINT FORMAT CODE IS   0
 HEADS WILL BE SAVED ON UNIT   51    DRAWDOWNS WILL BE SAVED ON UNIT   52
 # NWT for MODFLOW-NWT, generated by Flopy.

 NWT1 -- Newton Solver, VERSION 1.0.9, 07/01/2014
         INPUT READ FROM UNIT 32

 COMPLEX OPTION:
 DEFAULT SOLVER INPUT VALUES REFLECT STRONGLY NONLINEAR MODEL
 ***GMRES linear solver will be used***

   CONVERGENCE CRITERION OF   0.100000E-03 FOR HEAD SOLUTION
   AND A TOLERANCE OF   0.500000E+03 FOR FLOW SOLUTION AND 
   A MAXIMUM OF   100 OUTER ITERATIONS. 


   D-B-D REDUCTION FACTOR OF    0.850000E+00 AND 
   A D-B-D INCREASE FACTOR OF    0.100000E-04 AND 
   A D-B-D RELAXATION OF    0.000000E+00 AND 
   A MOMENTUM FACTOR OF    0.100000E+00 .


   BACKTRACKING IS ACTIVE 
   THE MAXIMUM NUMBER OF BACKTRACKS IS    50 AND 
   THE BACKTRACKING TOLERANCE IS    0.110000E+01 AND
   THE BACKTRACKING REDUCTION FACTOR IS    0.700000E+00

 GMRES -- LINEAR SOLUTION BY GMRES PACKAGE 
     adapted for HYDROTHERM by Kipp and others (2008)
     using software originally developed by Saad (1990) 32
     using algorithms described in Saad (2003)

 UPW1 -- UPSTREAM WEIGHTING FLOW PACKAGE, VERSION 1.0.6, 12/05/2012
         INPUT READ FROM UNIT 31

 # UPW for MODFLOW-NWT, generated by Flopy.
 No named parameters

   LAYER FLAGS:
 LAYER       LAYTYP          LAYAVG    CHANI           LAYVKA           LAYWET
 ---------------------------------------------------------------------------
    1             1             1     1.000E+00             1             0

   INTERPRETATION OF LAYER FLAGS:
                        INTERBLOCK     HORIZONTAL    DATA IN
         LAYER TYPE   TRANSMISSIVITY   ANISOTROPY   ARRAY VKA   WETTABILITY
 LAYER   (LAYTYP)        (LAYAVG)      (CHANI)     (LAYVKA)       (LAYWET)
 ---------------------------------------------------------------------------
    1   CONVERTIBLE   LOGARITHMIC     1.000E+00    ANISOTROPY  NON-WETTABLE



              HYD. COND. ALONG ROWS FOR LAYER   1
 READING ON UNIT   31 WITH FORMAT: (20G15.6)           

  HORIZ. TO VERTICAL ANI. =   1.00000     FOR LAYER   1

         SPECIFIC STORAGE =  1.000000E-04 FOR LAYER   1



                     SPECIFIC YIELD FOR LAYER   1
 READING ON UNIT   31 WITH FORMAT: (20G15.6)           

 WEL -- WELL PACKAGE, VERSION 1.0.6, 12/05/2012 INPUT READ FROM UNIT   20
 # Well file for MODFLOW, generated by Flopy.
 No named parameters
 MAXIMUM OF      4 ACTIVE WELLS AT ONE TIME
 No named parameters
  PHIRAMP WILL BE SET TO A DEFAULT VALUE OF 0.05
  WELLS WITH REDUCED PUMPING WILL BE REPORTED TO THE MAIN LISTING FILE


     0 Well parameters

 RIV -- RIVER PACKAGE, VERSION 7, 5/2/2005 INPUT READ FROM UNIT   18
 # RIV for MODFLOW, generated by Flopy.
 No named parameters
 MAXIMUM OF     22 ACTIVE RIVER REACHES AT ONE TIME


     0 River parameters

 RCH -- RECHARGE PACKAGE, VERSION 7, 5/2/2005 INPUT READ FROM UNIT   19
 # RCH for MODFLOW, generated by Flopy.
 No named parameters
 OPTION 3 -- RECHARGE TO HIGHEST ACTIVE NODE IN EACH VERTICAL COLUMN


     0 Recharge parameters
1
                            STRESS PERIOD NO.    1, LENGTH =   1.000000    
                            -----------------------------------------------

                              NUMBER OF TIME STEPS =     1

                               MULTIPLIER FOR DELT =     1.000

                            INITIAL TIME STEP SIZE =   1.000000    

 WELL NO.  LAYER   ROW   COL   STRESS RATE         
 --------------------------------------------------
      1      1      9     11      -50.24    
      2      1     10     17      -50.24    
      3      1      3     16      -50.24    
      4      1      2      7      -50.24    

      4 WELLS

 REACH NO.  LAYER   ROW   COL     STAGE      CONDUCTANCE     BOTTOM EL.         
 -------------------------------------------------------------------------------
      1      1      1     14       7.313          0.1364E+05       5.000    
      2      1      2     14       7.313          0.1356E+05       5.000    
      3      1      3     14       7.313          0.1211E+05       5.000    
      4      1      4      6       7.313          0.1092E+05       5.000    
      5      1      4      7       7.313          0.1135E+05       5.000    
      6      1      4      8       7.313          0.1182E+05       5.000    
      7      1      4      9       7.313          0.1307E+05       5.000    
      8      1      4     10       7.313          0.1202E+05       5.000    
      9      1      4     11       7.313          0.1073E+05       5.000    
     10      1      4     12       7.313           5202.           5.000    
     11      1      4     14       7.313          0.1496E+05       5.000    
     12      1      5      3       7.313           689.5           5.000    
     13      1      5      4       7.313           2047.           5.000    
     14      1      5      5       7.313          0.1346E+05       5.000    
     15      1      5      6       7.313           5948.           5.000    
     16      1      5     12       7.313           8376.           5.000    
     17      1      5     13       7.313          0.1677E+05       5.000    
     18      1      5     14       7.313           5193.           5.000    
     19      1      6      2       7.313          0.1209E+05       5.000    
     20      1      6      3       7.313          0.1807E+05       5.000    
     21      1      6      4       7.313          0.1027E+05       5.000    
     22      1      6      5       7.313           1327.           5.000    

     22 RIVER REACHES



                           RECHARGE
 READING ON UNIT   19 WITH FORMAT: (20G15.6)           

 SOLVING FOR HEAD 

    ------------------------------------------------
       NWT REQUIRED            8 OUTER ITERATIONS 
       AND A TOTAL OF        116 INNER ITERATIONS.
    ------------------------------------------------

 OUTPUT CONTROL FOR STRESS PERIOD    1   TIME STEP    1
    SAVE HEAD FOR ALL LAYERS
    SAVE DRAWDOWN FOR ALL LAYERS
    SAVE BUDGET
    PRINT HEAD FOR ALL LAYERS
    PRINT BUDGET
1
              HEAD IN LAYER   1 AT END OF TIME STEP   1 IN STRESS PERIOD    1
  ---------------------------------------------------------------------------

            1           2           3           4           5           6           7           8           9          10
           11          12          13          14          15          16          17          18          19          20
 ........................................................................................................................
   1    0.000       0.000       0.000       0.000       0.000       7.293       7.280       7.307       7.329       7.342    
        7.346       7.342       7.328       7.313       7.324       7.335       7.353       7.365       0.000       0.000    
   2    0.000       0.000       0.000       0.000       7.314       7.292       7.236       7.299       7.325       7.338    
        7.342       7.339       7.328       7.313       7.319       7.318       7.347       7.364       0.000       0.000    
   3    0.000       0.000       0.000       7.330       7.321       7.307       7.295       7.309       7.322       7.329    
        7.332       7.331       7.326       7.313       7.311       7.265       7.339       7.366       0.000       0.000    
   4    0.000       0.000       7.328       7.326       7.321       7.313       7.313       7.313       7.313       7.314    
        7.314       7.314       7.320       7.313       7.328       7.330       7.359       7.379       0.000       0.000    
   5    0.000       0.000       7.318       7.315       7.313       7.315       7.334       7.341       7.343       7.341    
        7.334       7.314       7.313       7.316       7.346       7.360       7.380       7.397       7.415       0.000    
   6    0.000       7.314       7.313       7.314       7.323       7.348       7.362       7.367       7.366       7.360    
        7.352       7.346       7.347       7.352       7.366       7.377       7.390       7.403       7.417       0.000    
   7    0.000       7.351       7.356       7.360       7.368       7.379       7.386       7.386       7.380       7.370    
        7.359       7.360       7.365       7.371       7.377       7.382       7.387       7.394       0.000       0.000    
   8    0.000       7.374       7.387       7.393       7.399       7.404       7.405       7.400       7.388       7.368    
        7.344       7.359       7.371       7.377       7.378       7.375       7.371       7.378       0.000       0.000    
   9    0.000       0.000       7.413       7.416       7.418       7.420       7.417       7.408       7.391       7.357    
        7.287       7.347       7.370       7.377       7.372       7.356       7.335       7.358       7.375       7.388    
  10    0.000       0.000       7.425       7.427       7.428       7.428       7.423       7.413       7.395       7.367    
        7.338       7.356       7.372       7.376       7.364       7.330       7.251       7.332       7.369       7.385    

 HEAD WILL BE SAVED ON UNIT   51 AT END OF TIME STEP    1, STRESS PERIOD    1

 DRAWDOWN WILL BE SAVED ON UNIT   52 AT END OF TIME STEP    1, STRESS PERIOD    1
1
  VOLUMETRIC BUDGET FOR ENTIRE MODEL AT END OF TIME STEP    1, STRESS PERIOD   1
  ------------------------------------------------------------------------------

     CUMULATIVE VOLUMES      L**3       RATES FOR THIS TIME STEP      L**3/T
     ------------------                 ------------------------

           IN:                                      IN:
           ---                                      ---
             STORAGE =           0.0000               STORAGE =           0.0000
       CONSTANT HEAD =           0.0000         CONSTANT HEAD =           0.0000
               WELLS =           0.0000                 WELLS =           0.0000
       RIVER LEAKAGE =           0.0000         RIVER LEAKAGE =           0.0000
            RECHARGE =         405.1014              RECHARGE =         405.1014

            TOTAL IN =         405.1014              TOTAL IN =         405.1014

          OUT:                                     OUT:
          ----                                     ----
             STORAGE =           0.0000               STORAGE =           0.0000
       CONSTANT HEAD =           0.0000         CONSTANT HEAD =           0.0000
               WELLS =         200.9482                 WELLS =         200.9482
       RIVER LEAKAGE =         204.2491         RIVER LEAKAGE =         204.2491
            RECHARGE =           0.0000              RECHARGE =           0.0000

           TOTAL OUT =         405.1973             TOTAL OUT =         405.1973

            IN - OUT =      -9.5886E-02              IN - OUT =      -9.5886E-02

 PERCENT DISCREPANCY =          -0.02     PERCENT DISCREPANCY =          -0.02






         TIME SUMMARY AT END OF TIME STEP    1 IN STRESS PERIOD    1
                    SECONDS     MINUTES      HOURS       DAYS        YEARS
                    -----------------------------------------------------------
   TIME STEP LENGTH  86400.      1440.0      24.000      1.0000     2.73785E-03
 STRESS PERIOD TIME  86400.      1440.0      24.000      1.0000     2.73785E-03
         TOTAL TIME  86400.      1440.0      24.000      1.0000     2.73785E-03
1
1
                            STRESS PERIOD NO.    2, LENGTH =   100.0000    
                            -----------------------------------------------

                              NUMBER OF TIME STEPS =   100

                               MULTIPLIER FOR DELT =     1.000

                            INITIAL TIME STEP SIZE =   1.000000    

 WELL NO.  LAYER   ROW   COL   STRESS RATE         
 --------------------------------------------------
      1      1      9     11      -49.62    
      2      1     10     17      -49.62    
      3      1      3     16      -49.62    
      4      1      2      7      -49.62    

      4 WELLS

 REACH NO.  LAYER   ROW   COL     STAGE      CONDUCTANCE     BOTTOM EL.         
 -------------------------------------------------------------------------------
      1      1      1     14       8.386          0.1364E+05       5.000    
      2      1      2     14       8.386          0.1356E+05       5.000    
      3      1      3     14       8.386          0.1211E+05       5.000    
      4      1      4      6       8.386          0.1092E+05       5.000    
      5      1      4      7       8.386          0.1135E+05       5.000    
      6      1      4      8       8.386          0.1182E+05       5.000    
      7      1      4      9       8.386          0.1307E+05       5.000    
      8      1      4     10       8.386          0.1202E+05       5.000    
      9      1      4     11       8.386          0.1073E+05       5.000    
     10      1      4     12       8.386           5202.           5.000    
     11      1      4     14       8.386          0.1496E+05       5.000    
     12      1      5      3       8.386           689.5           5.000    
     13      1      5      4       8.386           2047.           5.000    
     14      1      5      5       8.386          0.1346E+05       5.000    
     15      1      5      6       8.386           5948.           5.000    
     16      1      5     12       8.386           8376.           5.000    
     17      1      5     13       8.386          0.1677E+05       5.000    
     18      1      5     14       8.386           5193.           5.000    
     19      1      6      2       8.386          0.1209E+05       5.000    
     20      1      6      3       8.386          0.1807E+05       5.000    
     21      1      6      4       8.386          0.1027E+05       5.000    
     22      1      6      5       8.386           1327.           5.000    

     22 RIVER REACHES



                           RECHARGE
 READING ON UNIT   19 WITH FORMAT: (20G15.6)           

 SOLVING FOR HEAD 

    ------------------------------------------------
       NWT REQUIRED            4 OUTER ITERATIONS 
       AND A TOTAL OF          6 INNER ITERATIONS.
    ------------------------------------------------

 OUTPUT CONTROL FOR STRESS PERIOD    2   TIME STEP    1
    SAVE HEAD FOR ALL LAYERS
    SAVE DRAWDOWN FOR ALL LAYERS
    SAVE BUDGET
    PRINT HEAD FOR ALL LAYERS
    PRINT BUDGET
1
              HEAD IN LAYER   1 AT END OF TIME STEP   1 IN STRESS PERIOD    2
  ---------------------------------------------------------------------------

            1           2           3           4           5           6           7           8           9          10
           11          12          13          14          15          16          17          18          19          20
 ........................................................................................................................
   1    0.000       0.000       0.000       0.000       0.000       7.293       7.280       7.307       7.329       7.342    
        7.346       7.342       7.331       7.597       7.326       7.335       7.353       7.365       0.000       0.000    
   2    0.000       0.000       0.000       0.000       7.314       7.292       7.236       7.299       7.325       7.338    
        7.342       7.339       7.330       7.596       7.321       7.318       7.347       7.364       0.000       0.000    
   3    0.000       0.000       0.000       7.330       7.321       7.309       7.298       7.311       7.324       7.331    
        7.333       7.332       7.328       7.574       7.312       7.265       7.339       7.366       0.000       0.000    
   4    0.000       0.000       7.328       7.327       7.324       7.553       7.559       7.568       7.589       7.573    
        7.551       7.445       7.324       7.617       7.330       7.330       7.359       7.379       0.000       0.000    
   5    0.000       0.000       7.339       7.372       7.594       7.462       7.336       7.343       7.345       7.342    
        7.336       7.509       7.642       7.447       7.347       7.360       7.380       7.397       7.415       0.000    
   6    0.000       7.575       7.660       7.543       7.361       7.349       7.362       7.367       7.366       7.360    
        7.352       7.347       7.349       7.353       7.366       7.377       7.390       7.403       7.417       0.000    
   7    0.000       7.353       7.358       7.362       7.368       7.379       7.386       7.386       7.380       7.370    
        7.359       7.360       7.365       7.371       7.377       7.382       7.387       7.394       0.000       0.000    
   8    0.000       7.374       7.387       7.393       7.399       7.404       7.405       7.400       7.388       7.368    
        7.344       7.359       7.371       7.378       7.378       7.375       7.371       7.378       0.000       0.000    
   9    0.000       0.000       7.413       7.416       7.418       7.420       7.417       7.408       7.391       7.357    
        7.287       7.347       7.370       7.377       7.372       7.356       7.335       7.358       7.375       7.388    
  10    0.000       0.000       7.425       7.427       7.428       7.428       7.423       7.413       7.395       7.367    
        7.338       7.356       7.372       7.376       7.364       7.330       7.251       7.332       7.369       7.385    

 HEAD WILL BE SAVED ON UNIT   51 AT END OF TIME STEP    1, STRESS PERIOD    2

 DRAWDOWN WILL BE SAVED ON UNIT   52 AT END OF TIME STEP    1, STRESS PERIOD    2
1
  VOLUMETRIC BUDGET FOR ENTIRE MODEL AT END OF TIME STEP    1, STRESS PERIOD   2
  ------------------------------------------------------------------------------

     CUMULATIVE VOLUMES      L**3       RATES FOR THIS TIME STEP      L**3/T
     ------------------                 ------------------------

           IN:                                      IN:
           ---                                      ---
             STORAGE =           0.0000               STORAGE =           0.0000
       CONSTANT HEAD =           0.0000         CONSTANT HEAD =           0.0000
               WELLS =           0.0000                 WELLS =           0.0000
       RIVER LEAKAGE =      181636.3594         RIVER LEAKAGE =      181636.3594
            RECHARGE =         969.5522              RECHARGE =         564.4509

            TOTAL IN =      182605.9062              TOTAL IN =      182200.8125

          OUT:                                     OUT:
          ----                                     ----
             STORAGE =      182005.3438               STORAGE =      182005.3438
       CONSTANT HEAD =           0.0000         CONSTANT HEAD =           0.0000
               WELLS =         399.4203                 WELLS =         198.4721
       RIVER LEAKAGE =         204.2491         RIVER LEAKAGE =           0.0000
            RECHARGE =           0.0000              RECHARGE =           0.0000

           TOTAL OUT =      182609.0156             TOTAL OUT =      182203.8125

            IN - OUT =          -3.1094              IN - OUT =          -3.0000

 PERCENT DISCREPANCY =          -0.00     PERCENT DISCREPANCY =          -0.00






         TIME SUMMARY AT END OF TIME STEP    1 IN STRESS PERIOD    2
                    SECONDS     MINUTES      HOURS       DAYS        YEARS
                    -----------------------------------------------------------
   TIME STEP LENGTH  86400.      1440.0      24.000      1.0000     2.73785E-03
 STRESS PERIOD TIME  86400.      1440.0      24.000      1.0000     2.73785E-03
         TOTAL TIME 1.72800E+05  2880.0      48.000      2.0000     5.47570E-03
1

 SOLVING FOR HEAD 

    ------------------------------------------------
       NWT REQUIRED            4 OUTER ITERATIONS 
       AND A TOTAL OF          5 INNER ITERATIONS.
    ------------------------------------------------

 OUTPUT CONTROL FOR STRESS PERIOD    2   TIME STEP    2
    SAVE HEAD FOR ALL LAYERS
    SAVE DRAWDOWN FOR ALL LAYERS
    SAVE BUDGET
    PRINT HEAD FOR ALL LAYERS
    PRINT BUDGET
1
              HEAD IN LAYER   1 AT END OF TIME STEP   2 IN STRESS PERIOD    2
  ---------------------------------------------------------------------------

            1           2           3           4           5           6           7           8           9          10
           11          12          13          14          15          16          17          18          19          20
 ........................................................................................................................
   1    0.000       0.000       0.000       0.000       0.000       7.293       7.280       7.307       7.329       7.342    
        7.346       7.342       7.335       7.802       7.331       7.335       7.353       7.366       0.000       0.000    
   2    0.000       0.000       0.000       0.000       7.314       7.292       7.236       7.299       7.326       7.338    
        7.342       7.339       7.334       7.801       7.325       7.318       7.347       7.364       0.000       0.000    
   3    0.000       0.000       0.000       7.330       7.321       7.312       7.302       7.315       7.326       7.334    
        7.336       7.333       7.330       7.770       7.314       7.265       7.339       7.366       0.000       0.000    
   4    0.000       0.000       7.328       7.327       7.329       7.736       7.746       7.760       7.792       7.767    
        7.733       7.559       7.331       7.832       7.332       7.330       7.359       7.379       0.000       0.000    
   5    0.000       0.000       7.361       7.428       7.798       7.588       7.341       7.346       7.348       7.345    
        7.340       7.667       7.867       7.562       7.348       7.360       7.380       7.397       7.415       0.000    
   6    0.000       7.772       7.891       7.721       7.400       7.351       7.362       7.367       7.366       7.360    
        7.353       7.349       7.352       7.355       7.366       7.377       7.390       7.403       7.417       0.000    
   7    0.000       7.355       7.361       7.364       7.369       7.379       7.386       7.386       7.380       7.370    
        7.359       7.360       7.365       7.371       7.377       7.382       7.387       7.394       0.000       0.000    
   8    0.000       7.374       7.387       7.393       7.399       7.404       7.405       7.400       7.388       7.368    
        7.344       7.359       7.371       7.378       7.379       7.375       7.371       7.378       0.000       0.000    
   9    0.000       0.000       7.413       7.416       7.418       7.420       7.417       7.408       7.391       7.358    
        7.287       7.347       7.370       7.377       7.372       7.356       7.335       7.358       7.376       7.388    
  10    0.000       0.000       7.425       7.427       7.428       7.428       7.423       7.413       7.395       7.367    
        7.338       7.356       7.372       7.376       7.364       7.330       7.251       7.332       7.369       7.385    

 HEAD WILL BE SAVED ON UNIT   51 AT END OF TIME STEP    2, STRESS PERIOD    2

 DRAWDOWN WILL BE SAVED ON UNIT   52 AT END OF TIME STEP    2, STRESS PERIOD    2
1
  VOLUMETRIC BUDGET FOR ENTIRE MODEL AT END OF TIME STEP    2, STRESS PERIOD   2
  ------------------------------------------------------------------------------

     CUMULATIVE VOLUMES      L**3       RATES FOR THIS TIME STEP      L**3/T
     ------------------                 ------------------------

           IN:                                      IN:
           ---                                      ---
             STORAGE =           0.0000               STORAGE =           0.0000
       CONSTANT HEAD =           0.0000         CONSTANT HEAD =           0.0000
               WELLS =           0.0000                 WELLS =           0.0000
       RIVER LEAKAGE =      320429.3750         RIVER LEAKAGE =      138793.0156
            RECHARGE =        1534.0032              RECHARGE =         564.4509

            TOTAL IN =      321963.3750              TOTAL IN =      139357.4688

          OUT:                                     OUT:
          ----                                     ----
             STORAGE =      321166.6250               STORAGE =      139161.2656
       CONSTANT HEAD =           0.0000         CONSTANT HEAD =           0.0000
               WELLS =         597.8924                 WELLS =         198.4721
       RIVER LEAKAGE =         204.2491         RIVER LEAKAGE =           0.0000
            RECHARGE =           0.0000              RECHARGE =           0.0000

           TOTAL OUT =      321968.7812             TOTAL OUT =      139359.7344

            IN - OUT =          -5.4062              IN - OUT =          -2.2656

 PERCENT DISCREPANCY =          -0.00     PERCENT DISCREPANCY =          -0.00






         TIME SUMMARY AT END OF TIME STEP    2 IN STRESS PERIOD    2
                    SECONDS     MINUTES      HOURS       DAYS        YEARS
                    -----------------------------------------------------------
   TIME STEP LENGTH  86400.      1440.0      24.000      1.0000     2.73785E-03
 STRESS PERIOD TIME 1.72800E+05  2880.0      48.000      2.0000     5.47570E-03
         TOTAL TIME 2.59200E+05  4320.0      72.000      3.0000     8.21355E-03
1

 SOLVING FOR HEAD 

    ------------------------------------------------
       NWT REQUIRED            4 OUTER ITERATIONS 
       AND A TOTAL OF          5 INNER ITERATIONS.
    ------------------------------------------------

 OUTPUT CONTROL FOR STRESS PERIOD    2   TIME STEP    3
    SAVE HEAD FOR ALL LAYERS
    SAVE DRAWDOWN FOR ALL LAYERS
    SAVE BUDGET
    PRINT HEAD FOR ALL LAYERS
    PRINT BUDGET
1
              HEAD IN LAYER   1 AT END OF TIME STEP   3 IN STRESS PERIOD    2
  ---------------------------------------------------------------------------

            1           2           3           4           5           6           7           8           9          10
           11          12          13          14          15          16          17          18          19          20
 ........................................................................................................................
   1    0.000       0.000       0.000       0.000       0.000       7.293       7.280       7.307       7.329       7.342    
        7.346       7.342       7.341       7.950       7.336       7.335       7.353       7.366       0.000       0.000    
   2    0.000       0.000       0.000       0.000       7.314       7.292       7.237       7.299       7.326       7.338    
        7.342       7.339       7.338       7.950       7.329       7.318       7.347       7.364       0.000       0.000    
   3    0.000       0.000       0.000       7.330       7.321       7.316       7.308       7.320       7.330       7.337    
        7.339       7.335       7.333       7.917       7.317       7.265       7.339       7.366       0.000       0.000    
   4    0.000       0.000       7.329       7.329       7.336       7.877       7.887       7.904       7.940       7.912    
        7.873       7.659       7.339       7.984       7.336       7.330       7.359       7.379       0.000       0.000    
   5    0.000       0.000       7.384       7.480       7.946       7.697       7.348       7.350       7.351       7.348    
        7.345       7.795       8.020       7.663       7.350       7.360       7.380       7.397       7.415       0.000    
   6    0.000       7.920       8.046       7.860       7.438       7.354       7.362       7.367       7.366       7.360    
        7.353       7.352       7.356       7.357       7.366       7.377       7.390       7.403       7.417       0.000    
   7    0.000       7.359       7.365       7.367       7.369       7.380       7.386       7.387       7.381       7.370    
        7.359       7.360       7.365       7.371       7.377       7.382       7.387       7.394       0.000       0.000    
   8    0.000       7.374       7.387       7.393       7.399       7.404       7.405       7.400       7.388       7.368    
        7.344       7.359       7.371       7.378       7.379       7.375       7.371       7.378       0.000       0.000    
   9    0.000       0.000       7.413       7.416       7.418       7.420       7.417       7.408       7.391       7.358    
        7.287       7.347       7.371       7.377       7.372       7.356       7.335       7.358       7.376       7.388    
  10    0.000       0.000       7.426       7.427       7.428       7.428       7.423       7.413       7.395       7.367    
        7.338       7.357       7.372       7.376       7.364       7.330       7.251       7.332       7.369       7.385    

 HEAD WILL BE SAVED ON UNIT   51 AT END OF TIME STEP    3, STRESS PERIOD    2

 DRAWDOWN WILL BE SAVED ON UNIT   52 AT END OF TIME STEP    3, STRESS PERIOD    2
1
  VOLUMETRIC BUDGET FOR ENTIRE MODEL AT END OF TIME STEP    3, STRESS PERIOD   2
  ------------------------------------------------------------------------------

     CUMULATIVE VOLUMES      L**3       RATES FOR THIS TIME STEP      L**3/T
     ------------------                 ------------------------

           IN:                                      IN:
           ---                                      ---
             STORAGE =           0.0000               STORAGE =           0.0000
       CONSTANT HEAD =           0.0000         CONSTANT HEAD =           0.0000
               WELLS =           0.0000                 WELLS =           0.0000
       RIVER LEAKAGE =      427565.8125         RIVER LEAKAGE =      107136.4297
            RECHARGE =        2098.4541              RECHARGE =         564.4509

            TOTAL IN =      429664.2812              TOTAL IN =      107700.8828

          OUT:                                     OUT:
          ----                                     ----
             STORAGE =      428670.7812               STORAGE =      107504.1484
       CONSTANT HEAD =           0.0000         CONSTANT HEAD =           0.0000
               WELLS =         796.3645                 WELLS =         198.4721
       RIVER LEAKAGE =         204.2491         RIVER LEAKAGE =           0.0000
            RECHARGE =           0.0000              RECHARGE =           0.0000

           TOTAL OUT =      429671.4062             TOTAL OUT =      107702.6172

            IN - OUT =          -7.1250              IN - OUT =          -1.7344

 PERCENT DISCREPANCY =          -0.00     PERCENT DISCREPANCY =          -0.00






         TIME SUMMARY AT END OF TIME STEP    3 IN STRESS PERIOD    2
                    SECONDS     MINUTES      HOURS       DAYS        YEARS
                    -----------------------------------------------------------
   TIME STEP LENGTH  86400.      1440.0      24.000      1.0000     2.73785E-03
 STRESS PERIOD TIME 2.59200E+05  4320.0      72.000      3.0000     8.21355E-03
         TOTAL TIME 3.45600E+05  5760.0      96.000      4.0000     1.09514E-02
1

 SOLVING FOR HEAD 

    ------------------------------------------------
       NWT REQUIRED            4 OUTER ITERATIONS 
       AND A TOTAL OF          5 INNER ITERATIONS.
    ------------------------------------------------

 OUTPUT CONTROL FOR STRESS PERIOD    2   TIME STEP    4
    SAVE HEAD FOR ALL LAYERS
    SAVE DRAWDOWN FOR ALL LAYERS
    SAVE BUDGET
    PRINT HEAD FOR ALL LAYERS
    PRINT BUDGET
1
              HEAD IN LAYER   1 AT END OF TIME STEP   4 IN STRESS PERIOD    2
  ---------------------------------------------------------------------------

            1           2           3           4           5           6           7           8           9          10
           11          12          13          14          15          16          17          18          19          20
 ........................................................................................................................
   1    0.000       0.000       0.000       0.000       0.000       7.293       7.280       7.307       7.329       7.342    
        7.346       7.342       7.347       8.057       7.343       7.335       7.353       7.366       0.000       0.000    
   2    0.000       0.000       0.000       0.000       7.314       7.292       7.237       7.300       7.326       7.338    
        7.342       7.339       7.343       8.059       7.334       7.318       7.347       7.364       0.000       0.000    
   3    0.000       0.000       0.000       7.330       7.321       7.321       7.314       7.325       7.334       7.341    
        7.343       7.337       7.336       8.027       7.321       7.265       7.339       7.366       0.000       0.000    
   4    0.000       0.000       7.329       7.330       7.343       7.985       7.994       8.012       8.049       8.022    
        7.981       7.746       7.350       8.092       7.339       7.330       7.359       7.379       0.000       0.000    
   5    0.000       0.000       7.407       7.531       8.054       7.790       7.355       7.355       7.355       7.352    
        7.352       7.899       8.125       7.751       7.352       7.360       7.380       7.397       7.415       0.000    
   6    0.000       8.031       8.150       7.967       7.475       7.357       7.362       7.367       7.366       7.360    
        7.353       7.355       7.360       7.359       7.366       7.377       7.390       7.403       7.417       0.000    
   7    0.000       7.363       7.370       7.371       7.370       7.380       7.386       7.387       7.381       7.370    
        7.359       7.360       7.365       7.371       7.377       7.382       7.387       7.394       0.000       0.000    
   8    0.000       7.374       7.387       7.393       7.399       7.404       7.405       7.400       7.388       7.368    
        7.344       7.359       7.371       7.378       7.379       7.375       7.371       7.378       0.000       0.000    
   9    0.000       0.000       7.413       7.416       7.418       7.420       7.417       7.408       7.391       7.358    
        7.287       7.347       7.371       7.377       7.372       7.356       7.335       7.358       7.376       7.388    
  10    0.000       0.000       7.426       7.427       7.428       7.428       7.423       7.413       7.395       7.367    
        7.338       7.357       7.372       7.376       7.365       7.330       7.251       7.332       7.369       7.385    

 HEAD WILL BE SAVED ON UNIT   51 AT END OF TIME STEP    4, STRESS PERIOD    2

 DRAWDOWN WILL BE SAVED ON UNIT   52 AT END OF TIME STEP    4, STRESS PERIOD    2
1
  VOLUMETRIC BUDGET FOR ENTIRE MODEL AT END OF TIME STEP    4, STRESS PERIOD   2
  ------------------------------------------------------------------------------

     CUMULATIVE VOLUMES      L**3       RATES FOR THIS TIME STEP      L**3/T
     ------------------                 ------------------------

           IN:                                      IN:
           ---                                      ---
             STORAGE =           0.0000               STORAGE =           0.0000
       CONSTANT HEAD =           0.0000         CONSTANT HEAD =           0.0000
               WELLS =           0.0000                 WELLS =           0.0000
       RIVER LEAKAGE =      511211.7500         RIVER LEAKAGE =       83645.9297
            RECHARGE =        2662.9050              RECHARGE =         564.4509

            TOTAL IN =      513874.6562              TOTAL IN =       84210.3828

          OUT:                                     OUT:
          ----                                     ----
             STORAGE =      512684.0312               STORAGE =       84013.2500
       CONSTANT HEAD =           0.0000         CONSTANT HEAD =           0.0000
               WELLS =         994.8366                 WELLS =         198.4721
       RIVER LEAKAGE =         204.2491         RIVER LEAKAGE =           0.0000
            RECHARGE =           0.0000              RECHARGE =           0.0000

           TOTAL OUT =      513883.1250             TOTAL OUT =       84211.7188

            IN - OUT =          -8.4688              IN - OUT =          -1.3359

 PERCENT DISCREPANCY =          -0.00     PERCENT DISCREPANCY =          -0.00






         TIME SUMMARY AT END OF TIME STEP    4 IN STRESS PERIOD    2
                    SECONDS     MINUTES      HOURS       DAYS        YEARS
                    -----------------------------------------------------------
   TIME STEP LENGTH  86400.      1440.0      24.000      1.0000     2.73785E-03
 STRESS PERIOD TIME 3.45600E+05  5760.0      96.000      4.0000     1.09514E-02
         TOTAL TIME 4.32000E+05  7200.0      120.00      5.0000     1.36893E-02
1

 SOLVING FOR HEAD 

    ------------------------------------------------
       NWT REQUIRED            4 OUTER ITERATIONS 
       AND A TOTAL OF          5 INNER ITERATIONS.
    ------------------------------------------------

 OUTPUT CONTROL FOR STRESS PERIOD    2   TIME STEP    5
    SAVE HEAD FOR ALL LAYERS
    SAVE DRAWDOWN FOR ALL LAYERS
    SAVE BUDGET
    PRINT HEAD FOR ALL LAYERS
    PRINT BUDGET
1
              HEAD IN LAYER   1 AT END OF TIME STEP   5 IN STRESS PERIOD    2
  ---------------------------------------------------------------------------

            1           2           3           4           5           6           7           8           9          10
           11          12          13          14          15          16          17          18          19          20
 ........................................................................................................................
   1    0.000       0.000       0.000       0.000       0.000       7.293       7.280       7.307       7.329       7.342    
        7.346       7.342       7.354       8.135       7.350       7.335       7.353       7.366       0.000       0.000    
   2    0.000       0.000       0.000       0.000       7.314       7.293       7.237       7.300       7.326       7.338    
        7.342       7.339       7.349       8.137       7.340       7.318       7.347       7.364       0.000       0.000    
   3    0.000       0.000       0.000       7.330       7.322       7.326       7.322       7.331       7.339       7.345    
        7.347       7.340       7.340       8.110       7.325       7.265       7.339       7.366       0.000       0.000    
   4    0.000       0.000       7.330       7.331       7.352       8.067       8.075       8.093       8.130       8.104    
        8.064       7.821       7.361       8.169       7.343       7.330       7.359       7.379       0.000       0.000    
   5    0.000       0.000       7.429       7.578       8.133       7.869       7.364       7.360       7.360       7.357    
        7.359       7.983       8.198       7.828       7.354       7.360       7.380       7.397       7.415       0.000    
   6    0.000       8.115       8.219       8.051       7.511       7.361       7.362       7.367       7.366       7.360    
        7.353       7.359       7.365       7.362       7.366       7.378       7.390       7.403       7.417       0.000    
   7    0.000       7.368       7.375       7.375       7.371       7.380       7.386       7.387       7.381       7.370    
        7.359       7.360       7.365       7.371       7.377       7.382       7.387       7.394       0.000       0.000    
   8    0.000       7.374       7.387       7.394       7.399       7.404       7.405       7.400       7.388       7.368    
        7.344       7.359       7.371       7.378       7.379       7.375       7.371       7.378       0.000       0.000    
   9    0.000       0.000       7.413       7.416       7.419       7.420       7.417       7.408       7.391       7.358    
        7.287       7.348       7.371       7.378       7.372       7.356       7.335       7.358       7.376       7.388    
  10    0.000       0.000       7.426       7.427       7.428       7.428       7.424       7.413       7.395       7.367    
        7.338       7.357       7.372       7.376       7.365       7.330       7.251       7.332       7.369       7.385    

 HEAD WILL BE SAVED ON UNIT   51 AT END OF TIME STEP    5, STRESS PERIOD    2

 DRAWDOWN WILL BE SAVED ON UNIT   52 AT END OF TIME STEP    5, STRESS PERIOD    2
1
  VOLUMETRIC BUDGET FOR ENTIRE MODEL AT END OF TIME STEP    5, STRESS PERIOD   2
  ------------------------------------------------------------------------------

     CUMULATIVE VOLUMES      L**3       RATES FOR THIS TIME STEP      L**3/T
     ------------------                 ------------------------

           IN:                                      IN:
           ---                                      ---
             STORAGE =           0.0000               STORAGE =           0.0000
       CONSTANT HEAD =           0.0000         CONSTANT HEAD =           0.0000
               WELLS =           0.0000                 WELLS =           0.0000
       RIVER LEAKAGE =      577348.1875         RIVER LEAKAGE =       66136.4141
            RECHARGE =        3227.3560              RECHARGE =         564.4509

            TOTAL IN =      580575.5625              TOTAL IN =       66700.8672

          OUT:                                     OUT:
          ----                                     ----
             STORAGE =      579187.5000               STORAGE =       66503.4453
       CONSTANT HEAD =           0.0000         CONSTANT HEAD =           0.0000
               WELLS =        1193.3087                 WELLS =         198.4721
       RIVER LEAKAGE =         204.2491         RIVER LEAKAGE =           0.0000
            RECHARGE =           0.0000              RECHARGE =           0.0000

           TOTAL OUT =      580585.0625             TOTAL OUT =       66701.9141

            IN - OUT =          -9.5000              IN - OUT =          -1.0469

 PERCENT DISCREPANCY =          -0.00     PERCENT DISCREPANCY =          -0.00






         TIME SUMMARY AT END OF TIME STEP    5 IN STRESS PERIOD    2
                    SECONDS     MINUTES      HOURS       DAYS        YEARS
                    -----------------------------------------------------------
   TIME STEP LENGTH  86400.      1440.0      24.000      1.0000     2.73785E-03
 STRESS PERIOD TIME 4.32000E+05  7200.0      120.00      5.0000     1.36893E-02
         TOTAL TIME 5.18400E+05  8640.0      144.00      6.0000     1.64271E-02
1

 SOLVING FOR HEAD 

    ------------------------------------------------
       NWT REQUIRED            4 OUTER ITERATIONS 
       AND A TOTAL OF          5 INNER ITERATIONS.
    ------------------------------------------------

 OUTPUT CONTROL FOR STRESS PERIOD    2   TIME STEP    6
    SAVE HEAD FOR ALL LAYERS
    SAVE DRAWDOWN FOR ALL LAYERS
    SAVE BUDGET
    PRINT HEAD FOR ALL LAYERS
    PRINT BUDGET
1
              HEAD IN LAYER   1 AT END OF TIME STEP   6 IN STRESS PERIOD    2
  ---------------------------------------------------------------------------

            1           2           3           4           5           6           7           8           9          10
           11          12          13          14          15          16          17          18          19          20
 ........................................................................................................................
   1    0.000       0.000       0.000       0.000       0.000       7.293       7.281       7.307       7.329       7.342    
        7.346       7.343       7.362       8.191       7.357       7.336       7.353       7.366       0.000       0.000    
   2    0.000       0.000       0.000       0.000       7.314       7.293       7.237       7.300       7.326       7.338    
        7.342       7.340       7.355       8.194       7.346       7.319       7.347       7.364       0.000       0.000    
   3    0.000       0.000       0.000       7.330       7.322       7.332       7.330       7.338       7.344       7.350    
        7.351       7.344       7.345       8.172       7.329       7.265       7.339       7.366       0.000       0.000    
   4    0.000       0.000       7.331       7.333       7.361       8.131       8.136       8.155       8.189       8.165    
        8.129       7.887       7.372       8.223       7.347       7.330       7.359       7.379       0.000       0.000    
   5    0.000       0.000       7.451       7.623       8.191       7.937       7.373       7.366       7.365       7.362    
        7.367       8.051       8.247       7.894       7.357       7.361       7.380       7.397       7.415       0.000    
   6    0.000       8.178       8.266       8.116       7.546       7.365       7.363       7.367       7.366       7.361    
        7.353       7.363       7.370       7.365       7.367       7.378       7.390       7.403       7.417       0.000    
   7    0.000       7.373       7.381       7.380       7.373       7.380       7.386       7.387       7.381       7.370    
        7.359       7.360       7.365       7.371       7.377       7.382       7.387       7.394       0.000       0.000    
   8    0.000       7.374       7.388       7.394       7.399       7.404       7.405       7.400       7.388       7.368    
        7.344       7.359       7.371       7.378       7.379       7.375       7.371       7.378       0.000       0.000    
   9    0.000       0.000       7.413       7.416       7.419       7.420       7.417       7.409       7.391       7.358    
        7.287       7.348       7.371       7.378       7.373       7.356       7.335       7.358       7.376       7.388    
  10    0.000       0.000       7.426       7.427       7.428       7.428       7.424       7.413       7.395       7.367    
        7.338       7.357       7.372       7.376       7.365       7.330       7.251       7.332       7.369       7.385    

 HEAD WILL BE SAVED ON UNIT   51 AT END OF TIME STEP    6, STRESS PERIOD    2

 DRAWDOWN WILL BE SAVED ON UNIT   52 AT END OF TIME STEP    6, STRESS PERIOD    2
1
  VOLUMETRIC BUDGET FOR ENTIRE MODEL AT END OF TIME STEP    6, STRESS PERIOD   2
  ------------------------------------------------------------------------------

     CUMULATIVE VOLUMES      L**3       RATES FOR THIS TIME STEP      L**3/T
     ------------------                 ------------------------

           IN:                                      IN:
           ---                                      ---
             STORAGE =           0.0000               STORAGE =           0.0000
       CONSTANT HEAD =           0.0000         CONSTANT HEAD =           0.0000
               WELLS =           0.0000                 WELLS =           0.0000
       RIVER LEAKAGE =      630370.7500         RIVER LEAKAGE =       53022.5430
            RECHARGE =        3791.8069              RECHARGE =         564.4509

            TOTAL IN =      634162.5625              TOTAL IN =       53586.9922

          OUT:                                     OUT:
          ----                                     ----
             STORAGE =      632576.8750               STORAGE =       53389.3555
       CONSTANT HEAD =           0.0000         CONSTANT HEAD =           0.0000
               WELLS =        1391.7809                 WELLS =         198.4721
       RIVER LEAKAGE =         204.2491         RIVER LEAKAGE =           0.0000
            RECHARGE =           0.0000              RECHARGE =           0.0000

           TOTAL OUT =      634172.8750             TOTAL OUT =       53587.8281

            IN - OUT =         -10.3125              IN - OUT =          -0.8359

 PERCENT DISCREPANCY =          -0.00     PERCENT DISCREPANCY =          -0.00






         TIME SUMMARY AT END OF TIME STEP    6 IN STRESS PERIOD    2
                    SECONDS     MINUTES      HOURS       DAYS        YEARS
                    -----------------------------------------------------------
   TIME STEP LENGTH  86400.      1440.0      24.000      1.0000     2.73785E-03
 STRESS PERIOD TIME 5.18400E+05  8640.0      144.00      6.0000     1.64271E-02
         TOTAL TIME 6.04800E+05  10080.      168.00      7.0000     1.91650E-02
1

 SOLVING FOR HEAD 

    ------------------------------------------------
       NWT REQUIRED            4 OUTER ITERATIONS 
       AND A TOTAL OF          5 INNER ITERATIONS.
    ------------------------------------------------

 OUTPUT CONTROL FOR STRESS PERIOD    2   TIME STEP    7
    SAVE HEAD FOR ALL LAYERS
    SAVE DRAWDOWN FOR ALL LAYERS
    SAVE BUDGET
    PRINT HEAD FOR ALL LAYERS
    PRINT BUDGET
1
              HEAD IN LAYER   1 AT END OF TIME STEP   7 IN STRESS PERIOD    2
  ---------------------------------------------------------------------------

            1           2           3           4           5           6           7           8           9          10
           11          12          13          14          15          16          17          18          19          20
 ........................................................................................................................
   1    0.000       0.000       0.000       0.000       0.000       7.293       7.281       7.307       7.329       7.342    
        7.346       7.343       7.370       8.232       7.365       7.336       7.353       7.366       0.000       0.000    
   2    0.000       0.000       0.000       0.000       7.314       7.293       7.238       7.300       7.326       7.339    
        7.342       7.340       7.361       8.236       7.352       7.319       7.347       7.364       0.000       0.000    
   3    0.000       0.000       0.000       7.330       7.322       7.337       7.338       7.344       7.349       7.355    
        7.356       7.347       7.349       8.218       7.333       7.265       7.339       7.366       0.000       0.000    
   4    0.000       0.000       7.332       7.336       7.370       8.179       8.182       8.201       8.232       8.212    
        8.178       7.945       7.384       8.262       7.352       7.330       7.359       7.379       0.000       0.000    
   5    0.000       0.000       7.473       7.666       8.233       7.995       7.383       7.372       7.370       7.367    
        7.375       8.106       8.281       7.952       7.360       7.361       7.380       7.397       7.415       0.000    
   6    0.000       8.226       8.298       8.166       7.579       7.370       7.363       7.368       7.366       7.361    
        7.354       7.367       7.376       7.369       7.367       7.378       7.390       7.403       7.417       0.000    
   7    0.000       7.378       7.386       7.385       7.374       7.380       7.386       7.387       7.381       7.370    
        7.359       7.360       7.366       7.371       7.377       7.382       7.387       7.394       0.000       0.000    
   8    0.000       7.374       7.388       7.394       7.399       7.404       7.405       7.400       7.388       7.368    
        7.344       7.359       7.371       7.378       7.379       7.375       7.371       7.378       0.000       0.000    
   9    0.000       0.000       7.413       7.416       7.419       7.420       7.417       7.409       7.391       7.358    
        7.287       7.348       7.371       7.378       7.373       7.356       7.335       7.358       7.376       7.388    
  10    0.000       0.000       7.426       7.427       7.428       7.428       7.424       7.413       7.395       7.367    
        7.338       7.357       7.372       7.376       7.365       7.330       7.251       7.332       7.369       7.385    

 HEAD WILL BE SAVED ON UNIT   51 AT END OF TIME STEP    7, STRESS PERIOD    2

 DRAWDOWN WILL BE SAVED ON UNIT   52 AT END OF TIME STEP    7, STRESS PERIOD    2
1
  VOLUMETRIC BUDGET FOR ENTIRE MODEL AT END OF TIME STEP    7, STRESS PERIOD   2
  ------------------------------------------------------------------------------

     CUMULATIVE VOLUMES      L**3       RATES FOR THIS TIME STEP      L**3/T
     ------------------                 ------------------------

           IN:                                      IN:
           ---                                      ---
             STORAGE =           0.0000               STORAGE =           0.0000
       CONSTANT HEAD =           0.0000         CONSTANT HEAD =           0.0000
               WELLS =           0.0000                 WELLS =           0.0000
       RIVER LEAKAGE =      673521.3750         RIVER LEAKAGE =       43150.6055
            RECHARGE =        4356.2578              RECHARGE =         564.4509

            TOTAL IN =      677877.6250              TOTAL IN =       43715.0547

          OUT:                                     OUT:
          ----                                     ----
             STORAGE =      676094.1250               STORAGE =       43517.2500
       CONSTANT HEAD =           0.0000         CONSTANT HEAD =           0.0000
               WELLS =        1590.2531                 WELLS =         198.4721
       RIVER LEAKAGE =         204.2491         RIVER LEAKAGE =           0.0000
            RECHARGE =           0.0000              RECHARGE =           0.0000

           TOTAL OUT =      677888.6250             TOTAL OUT =       43715.7227

            IN - OUT =         -11.0000              IN - OUT =          -0.6680

 PERCENT DISCREPANCY =          -0.00     PERCENT DISCREPANCY =          -0.00






         TIME SUMMARY AT END OF TIME STEP    7 IN STRESS PERIOD    2
                    SECONDS     MINUTES      HOURS       DAYS        YEARS
                    -----------------------------------------------------------
   TIME STEP LENGTH  86400.      1440.0      24.000      1.0000     2.73785E-03
 STRESS PERIOD TIME 6.04800E+05  10080.      168.00      7.0000     1.91650E-02
         TOTAL TIME 6.91200E+05  11520.      192.00      8.0000     2.19028E-02
1

 SOLVING FOR HEAD 

    ------------------------------------------------
       NWT REQUIRED            4 OUTER ITERATIONS 
       AND A TOTAL OF          5 INNER ITERATIONS.
    ------------------------------------------------

 OUTPUT CONTROL FOR STRESS PERIOD    2   TIME STEP    8
    SAVE HEAD FOR ALL LAYERS
    SAVE DRAWDOWN FOR ALL LAYERS
    SAVE BUDGET
    PRINT HEAD FOR ALL LAYERS
    PRINT BUDGET
1
              HEAD IN LAYER   1 AT END OF TIME STEP   8 IN STRESS PERIOD    2
  ---------------------------------------------------------------------------

            1           2           3           4           5           6           7           8           9          10
           11          12          13          14          15          16          17          18          19          20
 ........................................................................................................................
   1    0.000       0.000       0.000       0.000       0.000       7.293       7.281       7.307       7.329       7.342    
        7.346       7.343       7.378       8.261       7.373       7.336       7.353       7.366       0.000       0.000    
   2    0.000       0.000       0.000       0.000       7.314       7.293       7.238       7.301       7.326       7.339    
        7.343       7.340       7.368       8.266       7.359       7.319       7.347       7.364       0.000       0.000    
   3    0.000       0.000       0.000       7.330       7.323       7.344       7.346       7.351       7.354       7.360    
        7.361       7.351       7.354       8.253       7.338       7.266       7.339       7.366       0.000       0.000    
   4    0.000       0.000       7.333       7.338       7.380       8.217       8.218       8.235       8.264       8.246    
        8.216       7.995       7.397       8.290       7.356       7.330       7.359       7.379       0.000       0.000    
   5    0.000       0.000       7.495       7.706       8.264       8.045       7.393       7.378       7.375       7.372    
        7.383       8.150       8.305       8.001       7.363       7.361       7.380       7.397       7.415       0.000    
   6    0.000       8.261       8.319       8.206       7.611       7.376       7.364       7.368       7.367       7.361    
        7.354       7.372       7.381       7.372       7.367       7.378       7.390       7.403       7.417       0.000    
   7    0.000       7.383       7.392       7.389       7.376       7.380       7.386       7.387       7.381       7.370    
        7.359       7.360       7.366       7.371       7.377       7.382       7.387       7.394       0.000       0.000    
   8    0.000       7.375       7.388       7.394       7.399       7.404       7.405       7.400       7.388       7.368    
        7.345       7.359       7.371       7.378       7.379       7.375       7.371       7.378       0.000       0.000    
   9    0.000       0.000       7.413       7.416       7.419       7.420       7.417       7.409       7.391       7.358    
        7.287       7.348       7.371       7.378       7.373       7.356       7.335       7.358       7.376       7.388    
  10    0.000       0.000       7.426       7.427       7.428       7.428       7.424       7.413       7.395       7.367    
        7.338       7.357       7.372       7.376       7.365       7.330       7.251       7.332       7.369       7.386    

 HEAD WILL BE SAVED ON UNIT   51 AT END OF TIME STEP    8, STRESS PERIOD    2

 DRAWDOWN WILL BE SAVED ON UNIT   52 AT END OF TIME STEP    8, STRESS PERIOD    2
1
  VOLUMETRIC BUDGET FOR ENTIRE MODEL AT END OF TIME STEP    8, STRESS PERIOD   2
  ------------------------------------------------------------------------------

     CUMULATIVE VOLUMES      L**3       RATES FOR THIS TIME STEP      L**3/T
     ------------------                 ------------------------

           IN:                                      IN:
           ---                                      ---
             STORAGE =           0.0000               STORAGE =           0.0000
       CONSTANT HEAD =           0.0000         CONSTANT HEAD =           0.0000
               WELLS =           0.0000                 WELLS =           0.0000
       RIVER LEAKAGE =      709199.7500         RIVER LEAKAGE =       35678.3984
            RECHARGE =        4920.7085              RECHARGE =         564.4509

            TOTAL IN =      714120.4375              TOTAL IN =       36242.8477

          OUT:                                     OUT:
          ----                                     ----
             STORAGE =      712139.0625               STORAGE =       36044.9219
       CONSTANT HEAD =           0.0000         CONSTANT HEAD =           0.0000
               WELLS =        1788.7252                 WELLS =         198.4721
       RIVER LEAKAGE =         204.2491         RIVER LEAKAGE =           0.0000
            RECHARGE =           0.0000              RECHARGE =           0.0000

           TOTAL OUT =      714132.0625             TOTAL OUT =       36243.3945

            IN - OUT =         -11.6250              IN - OUT =          -0.5469

 PERCENT DISCREPANCY =          -0.00     PERCENT DISCREPANCY =          -0.00






         TIME SUMMARY AT END OF TIME STEP    8 IN STRESS PERIOD    2
                    SECONDS     MINUTES      HOURS       DAYS        YEARS
                    -----------------------------------------------------------
   TIME STEP LENGTH  86400.      1440.0      24.000      1.0000     2.73785E-03
 STRESS PERIOD TIME 6.91200E+05  11520.      192.00      8.0000     2.19028E-02
         TOTAL TIME 7.77600E+05  12960.      216.00      9.0000     2.46407E-02
1

 SOLVING FOR HEAD 

    ------------------------------------------------
       NWT REQUIRED            4 OUTER ITERATIONS 
       AND A TOTAL OF          5 INNER ITERATIONS.
    ------------------------------------------------

 OUTPUT CONTROL FOR STRESS PERIOD    2   TIME STEP    9
    SAVE HEAD FOR ALL LAYERS
    SAVE DRAWDOWN FOR ALL LAYERS
    SAVE BUDGET
    PRINT HEAD FOR ALL LAYERS
    PRINT BUDGET
1
              HEAD IN LAYER   1 AT END OF TIME STEP   9 IN STRESS PERIOD    2
  ---------------------------------------------------------------------------

            1           2           3           4           5           6           7           8           9          10
           11          12          13          14          15          16          17          18          19          20
 ........................................................................................................................
   1    0.000       0.000       0.000       0.000       0.000       7.293       7.281       7.307       7.329       7.342    
        7.346       7.343       7.386       8.283       7.381       7.336       7.353       7.366       0.000       0.000    
   2    0.000       0.000       0.000       0.000       7.314       7.294       7.238       7.301       7.327       7.339    
        7.343       7.341       7.374       8.288       7.365       7.319       7.347       7.364       0.000       0.000    
   3    0.000       0.000       0.000       7.331       7.324       7.350       7.355       7.358       7.359       7.365    
        7.366       7.355       7.359       8.279       7.342       7.266       7.339       7.366       0.000       0.000    
   4    0.000       0.000       7.334       7.341       7.389       8.245       8.245       8.261       8.288       8.272    
        8.246       8.038       7.409       8.310       7.361       7.330       7.359       7.379       0.000       0.000    
   5    0.000       0.000       7.516       7.743       8.287       8.087       7.403       7.384       7.381       7.377    
        7.392       8.186       8.321       8.045       7.366       7.361       7.380       7.397       7.415       0.000    
   6    0.000       8.288       8.333       8.237       7.642       7.381       7.364       7.368       7.367       7.361    
        7.355       7.376       7.386       7.376       7.367       7.378       7.390       7.403       7.417       0.000    
   7    0.000       7.388       7.397       7.394       7.378       7.380       7.386       7.387       7.381       7.370    
        7.359       7.361       7.366       7.372       7.377       7.382       7.387       7.394       0.000       0.000    
   8    0.000       7.375       7.388       7.394       7.399       7.404       7.405       7.400       7.388       7.368    
        7.345       7.359       7.371       7.378       7.379       7.375       7.371       7.378       0.000       0.000    
   9    0.000       0.000       7.413       7.416       7.419       7.420       7.417       7.409       7.391       7.358    
        7.287       7.348       7.371       7.378       7.373       7.356       7.335       7.358       7.376       7.388    
  10    0.000       0.000       7.426       7.427       7.428       7.428       7.424       7.413       7.395       7.367    
        7.338       7.357       7.372       7.376       7.365       7.330       7.251       7.332       7.369       7.386    

 HEAD WILL BE SAVED ON UNIT   51 AT END OF TIME STEP    9, STRESS PERIOD    2

 DRAWDOWN WILL BE SAVED ON UNIT   52 AT END OF TIME STEP    9, STRESS PERIOD    2
1
  VOLUMETRIC BUDGET FOR ENTIRE MODEL AT END OF TIME STEP    9, STRESS PERIOD   2
  ------------------------------------------------------------------------------

     CUMULATIVE VOLUMES      L**3       RATES FOR THIS TIME STEP      L**3/T
     ------------------                 ------------------------

           IN:                                      IN:
           ---                                      ---
             STORAGE =           0.0000               STORAGE =           0.0000
       CONSTANT HEAD =           0.0000         CONSTANT HEAD =           0.0000
               WELLS =           0.0000                 WELLS =           0.0000
       RIVER LEAKAGE =      739189.0000         RIVER LEAKAGE =       29989.2539
            RECHARGE =        5485.1592              RECHARGE =         564.4509

            TOTAL IN =      744674.1875              TOTAL IN =       30553.7051

          OUT:                                     OUT:
          ----                                     ----
             STORAGE =      742494.7500               STORAGE =       30355.6836
       CONSTANT HEAD =           0.0000         CONSTANT HEAD =           0.0000
               WELLS =        1987.1974                 WELLS =         198.4721
       RIVER LEAKAGE =         204.2491         RIVER LEAKAGE =           0.0000
            RECHARGE =           0.0000              RECHARGE =           0.0000

           TOTAL OUT =      744686.1875             TOTAL OUT =       30554.1562

            IN - OUT =         -12.0000              IN - OUT =          -0.4512

 PERCENT DISCREPANCY =          -0.00     PERCENT DISCREPANCY =          -0.00






         TIME SUMMARY AT END OF TIME STEP    9 IN STRESS PERIOD    2
                    SECONDS     MINUTES      HOURS       DAYS        YEARS
                    -----------------------------------------------------------
   TIME STEP LENGTH  86400.      1440.0      24.000      1.0000     2.73785E-03
 STRESS PERIOD TIME 7.77600E+05  12960.      216.00      9.0000     2.46407E-02
         TOTAL TIME 8.64000E+05  14400.      240.00      10.000     2.73785E-02
1

 SOLVING FOR HEAD 

    ------------------------------------------------
       NWT REQUIRED            4 OUTER ITERATIONS 
       AND A TOTAL OF          4 INNER ITERATIONS.
    ------------------------------------------------

 OUTPUT CONTROL FOR STRESS PERIOD    2   TIME STEP   10
    SAVE HEAD FOR ALL LAYERS
    SAVE DRAWDOWN FOR ALL LAYERS
    SAVE BUDGET
    PRINT HEAD FOR ALL LAYERS
    PRINT BUDGET
1
              HEAD IN LAYER   1 AT END OF TIME STEP  10 IN STRESS PERIOD    2
  ---------------------------------------------------------------------------

            1           2           3           4           5           6           7           8           9          10
           11          12          13          14          15          16          17          18          19          20
 ........................................................................................................................
   1    0.000       0.000       0.000       0.000       0.000       7.293       7.281       7.307       7.329       7.342    
        7.347       7.344       7.394       8.298       7.389       7.337       7.353       7.366       0.000       0.000    
   2    0.000       0.000       0.000       0.000       7.314       7.294       7.239       7.301       7.327       7.339    
        7.343       7.341       7.381       8.305       7.372       7.319       7.347       7.364       0.000       0.000    
   3    0.000       0.000       0.000       7.331       7.324       7.356       7.363       7.366       7.365       7.371    
        7.371       7.359       7.364       8.298       7.347       7.266       7.339       7.366       0.000       0.000    
   4    0.000       0.000       7.335       7.343       7.399       8.268       8.265       8.281       8.305       8.292    
        8.268       8.076       7.422       8.324       7.365       7.331       7.359       7.379       0.000       0.000    
   5    0.000       0.000       7.537       7.778       8.304       8.123       7.414       7.390       7.386       7.383    
        7.401       8.216       8.333       8.082       7.370       7.361       7.380       7.397       7.415       0.000    
   6    0.000       8.308       8.343       8.261       7.671       7.387       7.365       7.368       7.367       7.361    
        7.355       7.381       7.391       7.381       7.367       7.378       7.390       7.403       7.417       0.000    
   7    0.000       7.394       7.403       7.400       7.380       7.381       7.386       7.387       7.381       7.370    
        7.359       7.361       7.366       7.372       7.378       7.382       7.387       7.394       0.000       0.000    
   8    0.000       7.375       7.389       7.395       7.399       7.404       7.405       7.400       7.388       7.368    
        7.345       7.359       7.371       7.378       7.379       7.375       7.371       7.378       0.000       0.000    
   9    0.000       0.000       7.413       7.416       7.419       7.420       7.417       7.409       7.391       7.358    
        7.287       7.348       7.371       7.378       7.373       7.356       7.335       7.358       7.376       7.388    
  10    0.000       0.000       7.426       7.427       7.428       7.428       7.424       7.413       7.395       7.367    
        7.338       7.357       7.372       7.376       7.365       7.330       7.251       7.332       7.369       7.386    

 HEAD WILL BE SAVED ON UNIT   51 AT END OF TIME STEP   10, STRESS PERIOD    2

 DRAWDOWN WILL BE SAVED ON UNIT   52 AT END OF TIME STEP   10, STRESS PERIOD    2
1
  VOLUMETRIC BUDGET FOR ENTIRE MODEL AT END OF TIME STEP   10, STRESS PERIOD   2
  ------------------------------------------------------------------------------

     CUMULATIVE VOLUMES      L**3       RATES FOR THIS TIME STEP      L**3/T
     ------------------                 ------------------------

           IN:                                      IN:
           ---                                      ---
             STORAGE =           0.0000               STORAGE =           0.0000
       CONSTANT HEAD =           0.0000         CONSTANT HEAD =           0.0000
               WELLS =           0.0000                 WELLS =           0.0000
       RIVER LEAKAGE =      764819.1875         RIVER LEAKAGE =       25630.2031
            RECHARGE =        6049.6099              RECHARGE =         564.4509

            TOTAL IN =      770868.8125              TOTAL IN =       26194.6543

          OUT:                                     OUT:
          ----                                     ----
             STORAGE =      768491.3125               STORAGE =       25996.5625
       CONSTANT HEAD =           0.0000         CONSTANT HEAD =           0.0000
               WELLS =        2185.6694                 WELLS =         198.4721
       RIVER LEAKAGE =         204.2491         RIVER LEAKAGE =           0.0000
            RECHARGE =           0.0000              RECHARGE =           0.0000

           TOTAL OUT =      770881.2500             TOTAL OUT =       26195.0352

            IN - OUT =         -12.4375              IN - OUT =          -0.3809

 PERCENT DISCREPANCY =          -0.00     PERCENT DISCREPANCY =          -0.00






         TIME SUMMARY AT END OF TIME STEP   10 IN STRESS PERIOD    2
                    SECONDS     MINUTES      HOURS       DAYS        YEARS
                    -----------------------------------------------------------
   TIME STEP LENGTH  86400.      1440.0      24.000      1.0000     2.73785E-03
 STRESS PERIOD TIME 8.64000E+05  14400.      240.00      10.000     2.73785E-02
         TOTAL TIME 9.50400E+05  15840.      264.00      11.000     3.01164E-02
1

 SOLVING FOR HEAD 

    ------------------------------------------------
       NWT REQUIRED            4 OUTER ITERATIONS 
       AND A TOTAL OF          4 INNER ITERATIONS.
    ------------------------------------------------

 OUTPUT CONTROL FOR STRESS PERIOD    2   TIME STEP   11
    SAVE HEAD FOR ALL LAYERS
    SAVE DRAWDOWN FOR ALL LAYERS
    SAVE BUDGET
    PRINT HEAD FOR ALL LAYERS
    PRINT BUDGET
1
              HEAD IN LAYER   1 AT END OF TIME STEP  11 IN STRESS PERIOD    2
  ---------------------------------------------------------------------------

            1           2           3           4           5           6           7           8           9          10
           11          12          13          14          15          16          17          18          19          20
 ........................................................................................................................
   1    0.000       0.000       0.000       0.000       0.000       7.293       7.281       7.307       7.329       7.342    
        7.347       7.344       7.402       8.310       7.397       7.337       7.353       7.366       0.000       0.000    
   2    0.000       0.000       0.000       0.000       7.314       7.294       7.239       7.302       7.327       7.339    
        7.343       7.341       7.388       8.316       7.378       7.320       7.347       7.364       0.000       0.000    
   3    0.000       0.000       0.000       7.331       7.325       7.362       7.371       7.373       7.370       7.376    
        7.376       7.364       7.369       8.313       7.351       7.266       7.339       7.366       0.000       0.000    
   4    0.000       0.000       7.337       7.346       7.409       8.285       8.281       8.296       8.318       8.307    
        8.286       8.108       7.435       8.334       7.370       7.331       7.360       7.379       0.000       0.000    
   5    0.000       0.000       7.557       7.811       8.317       8.153       7.424       7.396       7.391       7.388    
        7.410       8.239       8.341       8.114       7.373       7.361       7.380       7.398       7.415       0.000    
   6    0.000       8.323       8.350       8.280       7.698       7.393       7.366       7.369       7.367       7.362    
        7.356       7.386       7.397       7.385       7.368       7.378       7.390       7.403       7.417       0.000    
   7    0.000       7.399       7.408       7.405       7.382       7.381       7.387       7.387       7.381       7.370    
        7.359       7.361       7.367       7.372       7.378       7.382       7.387       7.395       0.000       0.000    
   8    0.000       7.375       7.389       7.395       7.399       7.404       7.405       7.400       7.388       7.368    
        7.345       7.359       7.371       7.378       7.379       7.375       7.371       7.378       0.000       0.000    
   9    0.000       0.000       7.413       7.416       7.419       7.420       7.417       7.409       7.391       7.358    
        7.287       7.348       7.371       7.378       7.373       7.356       7.335       7.358       7.376       7.388    
  10    0.000       0.000       7.426       7.427       7.428       7.428       7.424       7.413       7.395       7.368    
        7.338       7.357       7.372       7.376       7.365       7.330       7.251       7.332       7.369       7.386    

 HEAD WILL BE SAVED ON UNIT   51 AT END OF TIME STEP   11, STRESS PERIOD    2

 DRAWDOWN WILL BE SAVED ON UNIT   52 AT END OF TIME STEP   11, STRESS PERIOD    2
1
  VOLUMETRIC BUDGET FOR ENTIRE MODEL AT END OF TIME STEP   11, STRESS PERIOD   2
  ------------------------------------------------------------------------------

     CUMULATIVE VOLUMES      L**3       RATES FOR THIS TIME STEP      L**3/T
     ------------------                 ------------------------

           IN:                                      IN:
           ---                                      ---
             STORAGE =           0.0000               STORAGE =           0.0000
       CONSTANT HEAD =           0.0000         CONSTANT HEAD =           0.0000
               WELLS =           0.0000                 WELLS =           0.0000
       RIVER LEAKAGE =      787086.5625         RIVER LEAKAGE =       22267.3945
            RECHARGE =        6614.0605              RECHARGE =         564.4509

            TOTAL IN =      793700.6250              TOTAL IN =       22831.8457

          OUT:                                     OUT:
          ----                                     ----
             STORAGE =      791125.0000               STORAGE =       22633.6973
       CONSTANT HEAD =           0.0000         CONSTANT HEAD =           0.0000
               WELLS =        2384.1416                 WELLS =         198.4721
       RIVER LEAKAGE =         204.2491         RIVER LEAKAGE =           0.0000
            RECHARGE =           0.0000              RECHARGE =           0.0000

           TOTAL OUT =      793713.3750             TOTAL OUT =       22832.1699

            IN - OUT =         -12.7500              IN - OUT =          -0.3242

 PERCENT DISCREPANCY =          -0.00     PERCENT DISCREPANCY =          -0.00






         TIME SUMMARY AT END OF TIME STEP   11 IN STRESS PERIOD    2
                    SECONDS     MINUTES      HOURS       DAYS        YEARS
                    -----------------------------------------------------------
   TIME STEP LENGTH  86400.      1440.0      24.000      1.0000     2.73785E-03
 STRESS PERIOD TIME 9.50400E+05  15840.      264.00      11.000     3.01164E-02
         TOTAL TIME 1.03680E+06  17280.      288.00      12.000     3.28542E-02
1

 SOLVING FOR HEAD 

    ------------------------------------------------
       NWT REQUIRED            4 OUTER ITERATIONS 
       AND A TOTAL OF          4 INNER ITERATIONS.
    ------------------------------------------------

 OUTPUT CONTROL FOR STRESS PERIOD    2   TIME STEP   12
    SAVE HEAD FOR ALL LAYERS
    SAVE DRAWDOWN FOR ALL LAYERS
    SAVE BUDGET
    PRINT HEAD FOR ALL LAYERS
    PRINT BUDGET
1
              HEAD IN LAYER   1 AT END OF TIME STEP  12 IN STRESS PERIOD    2
  ---------------------------------------------------------------------------

            1           2           3           4           5           6           7           8           9          10
           11          12          13          14          15          16          17          18          19          20
 ........................................................................................................................
   1    0.000       0.000       0.000       0.000       0.000       7.293       7.281       7.307       7.329       7.342    
        7.347       7.345       7.410       8.318       7.405       7.338       7.353       7.366       0.000       0.000    
   2    0.000       0.000       0.000       0.000       7.314       7.295       7.240       7.302       7.327       7.340    
        7.344       7.342       7.394       8.325       7.385       7.320       7.347       7.364       0.000       0.000    
   3    0.000       0.000       0.000       7.331       7.326       7.368       7.380       7.380       7.376       7.381    
        7.381       7.368       7.375       8.324       7.356       7.266       7.339       7.366       0.000       0.000    
   4    0.000       0.000       7.338       7.350       7.418       8.298       8.293       8.307       8.327       8.318    
        8.300       8.137       7.447       8.342       7.374       7.331       7.360       7.379       0.000       0.000    
   5    0.000       0.000       7.576       7.842       8.326       8.180       7.435       7.403       7.397       7.393    
        7.418       8.259       8.347       8.142       7.377       7.361       7.380       7.398       7.415       0.000    
   6    0.000       8.335       8.355       8.294       7.725       7.399       7.366       7.369       7.368       7.362    
        7.356       7.391       7.402       7.389       7.368       7.378       7.390       7.403       7.417       0.000    
   7    0.000       7.405       7.414       7.410       7.384       7.381       7.387       7.387       7.381       7.370    
        7.359       7.361       7.367       7.372       7.378       7.382       7.387       7.395       0.000       0.000    
   8    0.000       7.376       7.389       7.395       7.399       7.404       7.405       7.400       7.388       7.368    
        7.345       7.359       7.371       7.378       7.379       7.375       7.371       7.378       0.000       0.000    
   9    0.000       0.000       7.413       7.416       7.419       7.420       7.417       7.409       7.391       7.358    
        7.287       7.348       7.371       7.378       7.373       7.356       7.335       7.358       7.376       7.388    
  10    0.000       0.000       7.426       7.427       7.429       7.428       7.424       7.413       7.395       7.368    
        7.338       7.357       7.372       7.376       7.365       7.330       7.251       7.332       7.369       7.386    

 HEAD WILL BE SAVED ON UNIT   51 AT END OF TIME STEP   12, STRESS PERIOD    2

 DRAWDOWN WILL BE SAVED ON UNIT   52 AT END OF TIME STEP   12, STRESS PERIOD    2
1
  VOLUMETRIC BUDGET FOR ENTIRE MODEL AT END OF TIME STEP   12, STRESS PERIOD   2
  ------------------------------------------------------------------------------

     CUMULATIVE VOLUMES      L**3       RATES FOR THIS TIME STEP      L**3/T
     ------------------                 ------------------------

           IN:                                      IN:
           ---                                      ---
             STORAGE =           0.0000               STORAGE =           0.0000
       CONSTANT HEAD =           0.0000         CONSTANT HEAD =           0.0000
               WELLS =           0.0000                 WELLS =           0.0000
       RIVER LEAKAGE =      806740.6250         RIVER LEAKAGE =       19654.0430
            RECHARGE =        7178.5112              RECHARGE =         564.4509

            TOTAL IN =      813919.1250              TOTAL IN =       20218.4941

          OUT:                                     OUT:
          ----                                     ----
             STORAGE =      811145.3125               STORAGE =       20020.3047
       CONSTANT HEAD =           0.0000         CONSTANT HEAD =           0.0000
               WELLS =        2582.6138                 WELLS =         198.4721
       RIVER LEAKAGE =         204.2491         RIVER LEAKAGE =           0.0000
            RECHARGE =           0.0000              RECHARGE =           0.0000

           TOTAL OUT =      813932.1875             TOTAL OUT =       20218.7773

            IN - OUT =         -13.0625              IN - OUT =          -0.2832

 PERCENT DISCREPANCY =          -0.00     PERCENT DISCREPANCY =          -0.00






         TIME SUMMARY AT END OF TIME STEP   12 IN STRESS PERIOD    2
                    SECONDS     MINUTES      HOURS       DAYS        YEARS
                    -----------------------------------------------------------
   TIME STEP LENGTH  86400.      1440.0      24.000      1.0000     2.73785E-03
 STRESS PERIOD TIME 1.03680E+06  17280.      288.00      12.000     3.28542E-02
         TOTAL TIME 1.12320E+06  18720.      312.00      13.000     3.55921E-02
1

 SOLVING FOR HEAD 

    ------------------------------------------------
       NWT REQUIRED            4 OUTER ITERATIONS 
       AND A TOTAL OF          4 INNER ITERATIONS.
    ------------------------------------------------

 OUTPUT CONTROL FOR STRESS PERIOD    2   TIME STEP   13
    SAVE HEAD FOR ALL LAYERS
    SAVE DRAWDOWN FOR ALL LAYERS
    SAVE BUDGET
    PRINT HEAD FOR ALL LAYERS
    PRINT BUDGET
1
              HEAD IN LAYER   1 AT END OF TIME STEP  13 IN STRESS PERIOD    2
  ---------------------------------------------------------------------------

            1           2           3           4           5           6           7           8           9          10
           11          12          13          14          15          16          17          18          19          20
 ........................................................................................................................
   1    0.000       0.000       0.000       0.000       0.000       7.293       7.281       7.307       7.329       7.342    
        7.347       7.345       7.418       8.324       7.413       7.338       7.353       7.366       0.000       0.000    
   2    0.000       0.000       0.000       0.000       7.314       7.295       7.241       7.303       7.328       7.340    
        7.344       7.343       7.401       8.331       7.391       7.320       7.347       7.365       0.000       0.000    
   3    0.000       0.000       0.000       7.331       7.327       7.375       7.388       7.387       7.381       7.387    
        7.387       7.373       7.380       8.332       7.361       7.267       7.339       7.366       0.000       0.000    
   4    0.000       0.000       7.340       7.353       7.428       8.308       8.302       8.316       8.334       8.326    
        8.310       8.162       7.460       8.347       7.379       7.331       7.360       7.379       0.000       0.000    
   5    0.000       0.000       7.595       7.871       8.333       8.202       7.445       7.409       7.402       7.399    
        7.427       8.274       8.351       8.167       7.381       7.361       7.380       7.398       7.415       0.000    
   6    0.000       8.343       8.358       8.306       7.750       7.405       7.367       7.369       7.368       7.362    
        7.357       7.396       7.407       7.394       7.369       7.378       7.390       7.403       7.417       0.000    
   7    0.000       7.410       7.419       7.415       7.387       7.382       7.387       7.387       7.381       7.370    
        7.359       7.362       7.367       7.372       7.378       7.382       7.387       7.395       0.000       0.000    
   8    0.000       7.376       7.390       7.395       7.399       7.404       7.405       7.400       7.388       7.368    
        7.345       7.359       7.371       7.378       7.379       7.375       7.371       7.378       0.000       0.000    
   9    0.000       0.000       7.413       7.416       7.419       7.420       7.417       7.409       7.391       7.358    
        7.287       7.348       7.371       7.378       7.373       7.356       7.335       7.358       7.376       7.388    
  10    0.000       0.000       7.426       7.427       7.429       7.428       7.424       7.413       7.395       7.368    
        7.338       7.357       7.372       7.376       7.365       7.330       7.251       7.332       7.369       7.386    

 HEAD WILL BE SAVED ON UNIT   51 AT END OF TIME STEP   13, STRESS PERIOD    2

 DRAWDOWN WILL BE SAVED ON UNIT   52 AT END OF TIME STEP   13, STRESS PERIOD    2
1
  VOLUMETRIC BUDGET FOR ENTIRE MODEL AT END OF TIME STEP   13, STRESS PERIOD   2
  ------------------------------------------------------------------------------

     CUMULATIVE VOLUMES      L**3       RATES FOR THIS TIME STEP      L**3/T
     ------------------                 ------------------------

           IN:                                      IN:
           ---                                      ---
             STORAGE =           0.0000               STORAGE =           0.0000
       CONSTANT HEAD =           0.0000         CONSTANT HEAD =           0.0000
               WELLS =           0.0000                 WELLS =           0.0000
       RIVER LEAKAGE =      824347.6250         RIVER LEAKAGE =       17607.0098
            RECHARGE =        7742.9619              RECHARGE =         564.4509

            TOTAL IN =      832090.5625              TOTAL IN =       18171.4609

          OUT:                                     OUT:
          ----                                     ----
             STORAGE =      829118.5625               STORAGE =       17973.2383
       CONSTANT HEAD =           0.0000         CONSTANT HEAD =           0.0000
               WELLS =        2781.0859                 WELLS =         198.4721
       RIVER LEAKAGE =         204.2491         RIVER LEAKAGE =           0.0000
            RECHARGE =           0.0000              RECHARGE =           0.0000

           TOTAL OUT =      832103.8750             TOTAL OUT =       18171.7109

            IN - OUT =         -13.3125              IN - OUT =          -0.2500

 PERCENT DISCREPANCY =          -0.00     PERCENT DISCREPANCY =          -0.00






         TIME SUMMARY AT END OF TIME STEP   13 IN STRESS PERIOD    2
                    SECONDS     MINUTES      HOURS       DAYS        YEARS
                    -----------------------------------------------------------
   TIME STEP LENGTH  86400.      1440.0      24.000      1.0000     2.73785E-03
 STRESS PERIOD TIME 1.12320E+06  18720.      312.00      13.000     3.55921E-02
         TOTAL TIME 1.20960E+06  20160.      336.00      14.000     3.83299E-02
1

 SOLVING FOR HEAD 

    ------------------------------------------------
       NWT REQUIRED            4 OUTER ITERATIONS 
       AND A TOTAL OF          4 INNER ITERATIONS.
    ------------------------------------------------

 OUTPUT CONTROL FOR STRESS PERIOD    2   TIME STEP   14
    SAVE HEAD FOR ALL LAYERS
    SAVE DRAWDOWN FOR ALL LAYERS
    SAVE BUDGET
    PRINT HEAD FOR ALL LAYERS
    PRINT BUDGET
1
              HEAD IN LAYER   1 AT END OF TIME STEP  14 IN STRESS PERIOD    2
  ---------------------------------------------------------------------------

            1           2           3           4           5           6           7           8           9          10
           11          12          13          14          15          16          17          18          19          20
 ........................................................................................................................
   1    0.000       0.000       0.000       0.000       0.000       7.293       7.281       7.307       7.329       7.342    
        7.347       7.346       7.426       8.329       7.421       7.338       7.353       7.366       0.000       0.000    
   2    0.000       0.000       0.000       0.000       7.315       7.295       7.241       7.303       7.328       7.340    
        7.344       7.343       7.407       8.336       7.398       7.321       7.347       7.365       0.000       0.000    
   3    0.000       0.000       0.000       7.331       7.328       7.381       7.397       7.394       7.387       7.392    
        7.392       7.378       7.385       8.338       7.365       7.267       7.339       7.366       0.000       0.000    
   4    0.000       0.000       7.342       7.357       7.437       8.316       8.309       8.322       8.340       8.333    
        8.319       8.183       7.472       8.351       7.383       7.332       7.360       7.379       0.000       0.000    
   5    0.000       0.000       7.614       7.897       8.339       8.221       7.456       7.415       7.407       7.404    
        7.436       8.287       8.354       8.188       7.385       7.362       7.380       7.398       7.415       0.000    
   6    0.000       8.350       8.360       8.315       7.774       7.411       7.368       7.370       7.368       7.363    
        7.358       7.400       7.412       7.398       7.369       7.378       7.390       7.403       7.417       0.000    
   7    0.000       7.416       7.424       7.420       7.389       7.382       7.387       7.387       7.381       7.370    
        7.359       7.362       7.368       7.373       7.378       7.382       7.387       7.395       0.000       0.000    
   8    0.000       7.376       7.390       7.396       7.400       7.404       7.405       7.400       7.388       7.368    
        7.345       7.359       7.371       7.378       7.379       7.375       7.371       7.379       0.000       0.000    
   9    0.000       0.000       7.413       7.416       7.419       7.420       7.417       7.409       7.391       7.358    
        7.287       7.348       7.371       7.378       7.373       7.356       7.335       7.358       7.376       7.388    
  10    0.000       0.000       7.426       7.427       7.429       7.428       7.424       7.413       7.395       7.368    
        7.338       7.357       7.372       7.376       7.365       7.330       7.251       7.332       7.369       7.386    

 HEAD WILL BE SAVED ON UNIT   51 AT END OF TIME STEP   14, STRESS PERIOD    2

 DRAWDOWN WILL BE SAVED ON UNIT   52 AT END OF TIME STEP   14, STRESS PERIOD    2
1
  VOLUMETRIC BUDGET FOR ENTIRE MODEL AT END OF TIME STEP   14, STRESS PERIOD   2
  ------------------------------------------------------------------------------

     CUMULATIVE VOLUMES      L**3       RATES FOR THIS TIME STEP      L**3/T
     ------------------                 ------------------------

           IN:                                      IN:
           ---                                      ---
             STORAGE =           0.0000               STORAGE =           0.0000
       CONSTANT HEAD =           0.0000         CONSTANT HEAD =           0.0000
               WELLS =           0.0000                 WELLS =           0.0000
       RIVER LEAKAGE =      840337.5625         RIVER LEAKAGE =       15989.9424
            RECHARGE =        8307.4131              RECHARGE =         564.4509

            TOTAL IN =      848645.0000              TOTAL IN =       16554.3926

          OUT:                                     OUT:
          ----                                     ----
             STORAGE =      845474.6875               STORAGE =       16356.1455
       CONSTANT HEAD =           0.0000         CONSTANT HEAD =           0.0000
               WELLS =        2979.5581                 WELLS =         198.4721
       RIVER LEAKAGE =         204.2491         RIVER LEAKAGE =           0.0000
            RECHARGE =           0.0000              RECHARGE =           0.0000

           TOTAL OUT =      848658.5000             TOTAL OUT =       16554.6172

            IN - OUT =         -13.5000              IN - OUT =          -0.2246

 PERCENT DISCREPANCY =          -0.00     PERCENT DISCREPANCY =          -0.00






         TIME SUMMARY AT END OF TIME STEP   14 IN STRESS PERIOD    2
                    SECONDS     MINUTES      HOURS       DAYS        YEARS
                    -----------------------------------------------------------
   TIME STEP LENGTH  86400.      1440.0      24.000      1.0000     2.73785E-03
 STRESS PERIOD TIME 1.20960E+06  20160.      336.00      14.000     3.83299E-02
         TOTAL TIME 1.29600E+06  21600.      360.00      15.000     4.10678E-02
1

 SOLVING FOR HEAD 

    ------------------------------------------------
       NWT REQUIRED            4 OUTER ITERATIONS 
       AND A TOTAL OF          4 INNER ITERATIONS.
    ------------------------------------------------

 OUTPUT CONTROL FOR STRESS PERIOD    2   TIME STEP   15
    SAVE HEAD FOR ALL LAYERS
    SAVE DRAWDOWN FOR ALL LAYERS
    SAVE BUDGET
    PRINT HEAD FOR ALL LAYERS
    PRINT BUDGET
1
              HEAD IN LAYER   1 AT END OF TIME STEP  15 IN STRESS PERIOD    2
  ---------------------------------------------------------------------------

            1           2           3           4           5           6           7           8           9          10
           11          12          13          14          15          16          17          18          19          20
 ........................................................................................................................
   1    0.000       0.000       0.000       0.000       0.000       7.293       7.281       7.307       7.330       7.342    
        7.347       7.346       7.433       8.332       7.428       7.339       7.354       7.366       0.000       0.000    
   2    0.000       0.000       0.000       0.000       7.315       7.296       7.242       7.304       7.329       7.341    
        7.345       7.344       7.413       8.339       7.404       7.321       7.347       7.365       0.000       0.000    
   3    0.000       0.000       0.000       7.332       7.329       7.387       7.405       7.401       7.392       7.397    
        7.397       7.382       7.391       8.343       7.370       7.267       7.339       7.366       0.000       0.000    
   4    0.000       0.000       7.343       7.360       7.446       8.323       8.314       8.327       8.343       8.337    
        8.325       8.202       7.485       8.354       7.388       7.332       7.360       7.379       0.000       0.000    
   5    0.000       0.000       7.632       7.923       8.343       8.237       7.466       7.422       7.413       7.410    
        7.445       8.297       8.356       8.206       7.388       7.362       7.380       7.398       7.415       0.000    
   6    0.000       8.354       8.362       8.323       7.796       7.418       7.369       7.370       7.369       7.363    
        7.359       7.405       7.418       7.403       7.369       7.378       7.390       7.403       7.417       0.000    
   7    0.000       7.421       7.430       7.425       7.392       7.383       7.387       7.387       7.381       7.370    
        7.360       7.362       7.368       7.373       7.378       7.382       7.387       7.395       0.000       0.000    
   8    0.000       7.377       7.390       7.396       7.400       7.404       7.405       7.400       7.388       7.368    
        7.345       7.359       7.371       7.378       7.379       7.375       7.371       7.379       0.000       0.000    
   9    0.000       0.000       7.413       7.416       7.419       7.420       7.418       7.409       7.391       7.358    
        7.287       7.348       7.371       7.378       7.373       7.356       7.335       7.358       7.376       7.388    
  10    0.000       0.000       7.426       7.427       7.429       7.428       7.424       7.413       7.395       7.368    
        7.338       7.357       7.372       7.376       7.365       7.330       7.251       7.332       7.369       7.386    

 HEAD WILL BE SAVED ON UNIT   51 AT END OF TIME STEP   15, STRESS PERIOD    2

 DRAWDOWN WILL BE SAVED ON UNIT   52 AT END OF TIME STEP   15, STRESS PERIOD    2
1
  VOLUMETRIC BUDGET FOR ENTIRE MODEL AT END OF TIME STEP   15, STRESS PERIOD   2
  ------------------------------------------------------------------------------

     CUMULATIVE VOLUMES      L**3       RATES FOR THIS TIME STEP      L**3/T
     ------------------                 ------------------------

           IN:                                      IN:
           ---                                      ---
             STORAGE =           0.0000               STORAGE =           0.0000
       CONSTANT HEAD =           0.0000         CONSTANT HEAD =           0.0000
               WELLS =           0.0000                 WELLS =           0.0000
       RIVER LEAKAGE =      855038.5625         RIVER LEAKAGE =       14700.9775
            RECHARGE =        8871.8643              RECHARGE =         564.4509

            TOTAL IN =      863910.4375              TOTAL IN =       15265.4287

          OUT:                                     OUT:
          ----                                     ----
             STORAGE =      860541.8750               STORAGE =       15067.1611
       CONSTANT HEAD =           0.0000         CONSTANT HEAD =           0.0000
               WELLS =        3178.0303                 WELLS =         198.4721
       RIVER LEAKAGE =         204.2491         RIVER LEAKAGE =           0.0000
            RECHARGE =           0.0000              RECHARGE =           0.0000

           TOTAL OUT =      863924.1250             TOTAL OUT =       15265.6328

            IN - OUT =         -13.6875              IN - OUT =          -0.2041

 PERCENT DISCREPANCY =          -0.00     PERCENT DISCREPANCY =          -0.00






         TIME SUMMARY AT END OF TIME STEP   15 IN STRESS PERIOD    2
                    SECONDS     MINUTES      HOURS       DAYS        YEARS
                    -----------------------------------------------------------
   TIME STEP LENGTH  86400.      1440.0      24.000      1.0000     2.73785E-03
 STRESS PERIOD TIME 1.29600E+06  21600.      360.00      15.000     4.10678E-02
         TOTAL TIME 1.38240E+06  23040.      384.00      16.000     4.38056E-02
1

 SOLVING FOR HEAD 

    ------------------------------------------------
       NWT REQUIRED            4 OUTER ITERATIONS 
       AND A TOTAL OF          4 INNER ITERATIONS.
    ------------------------------------------------

 OUTPUT CONTROL FOR STRESS PERIOD    2   TIME STEP   16
    SAVE HEAD FOR ALL LAYERS
    SAVE DRAWDOWN FOR ALL LAYERS
    SAVE BUDGET
    PRINT HEAD FOR ALL LAYERS
    PRINT BUDGET
1
              HEAD IN LAYER   1 AT END OF TIME STEP  16 IN STRESS PERIOD    2
  ---------------------------------------------------------------------------

            1           2           3           4           5           6           7           8           9          10
           11          12          13          14          15          16          17          18          19          20
 ........................................................................................................................
   1    0.000       0.000       0.000       0.000       0.000       7.293       7.281       7.307       7.330       7.342    
        7.347       7.347       7.441       8.335       7.436       7.339       7.354       7.366       0.000       0.000    
   2    0.000       0.000       0.000       0.000       7.315       7.296       7.243       7.304       7.329       7.341    
        7.345       7.345       7.420       8.342       7.411       7.322       7.347       7.365       0.000       0.000    
   3    0.000       0.000       0.000       7.332       7.330       7.393       7.413       7.408       7.397       7.402    
        7.402       7.387       7.396       8.347       7.375       7.268       7.339       7.366       0.000       0.000    
   4    0.000       0.000       7.345       7.364       7.455       8.327       8.318       8.331       8.346       8.341    
        8.330       8.218       7.497       8.356       7.392       7.332       7.360       7.379       0.000       0.000    
   5    0.000       0.000       7.649       7.946       8.347       8.251       7.476       7.428       7.418       7.415    
        7.453       8.306       8.357       8.221       7.392       7.362       7.380       7.398       7.415       0.000    
   6    0.000       8.358       8.363       8.329       7.818       7.424       7.370       7.371       7.369       7.364    
        7.360       7.410       7.423       7.407       7.370       7.378       7.390       7.403       7.417       0.000    
   7    0.000       7.426       7.435       7.430       7.395       7.383       7.387       7.387       7.381       7.370    
        7.360       7.363       7.368       7.373       7.378       7.382       7.387       7.395       0.000       0.000    
   8    0.000       7.377       7.391       7.397       7.400       7.404       7.405       7.400       7.388       7.368    
        7.345       7.359       7.371       7.378       7.379       7.375       7.371       7.379       0.000       0.000    
   9    0.000       0.000       7.413       7.416       7.419       7.420       7.418       7.409       7.391       7.358    
        7.287       7.348       7.371       7.378       7.373       7.356       7.335       7.358       7.376       7.388    
  10    0.000       0.000       7.426       7.427       7.429       7.428       7.424       7.413       7.395       7.368    
        7.338       7.357       7.372       7.376       7.365       7.330       7.251       7.332       7.369       7.386    

 HEAD WILL BE SAVED ON UNIT   51 AT END OF TIME STEP   16, STRESS PERIOD    2

 DRAWDOWN WILL BE SAVED ON UNIT   52 AT END OF TIME STEP   16, STRESS PERIOD    2
1
  VOLUMETRIC BUDGET FOR ENTIRE MODEL AT END OF TIME STEP   16, STRESS PERIOD   2
  ------------------------------------------------------------------------------

     CUMULATIVE VOLUMES      L**3       RATES FOR THIS TIME STEP      L**3/T
     ------------------                 ------------------------

           IN:                                      IN:
           ---                                      ---
             STORAGE =           0.0000               STORAGE =           0.0000
       CONSTANT HEAD =           0.0000         CONSTANT HEAD =           0.0000
               WELLS =           0.0000                 WELLS =           0.0000
       RIVER LEAKAGE =      868702.3125         RIVER LEAKAGE =       13663.7510
            RECHARGE =        9436.3154              RECHARGE =         564.4509

            TOTAL IN =      878138.6250              TOTAL IN =       14228.2021

          OUT:                                     OUT:
          ----                                     ----
             STORAGE =      874571.8125               STORAGE =       14029.9180
       CONSTANT HEAD =           0.0000         CONSTANT HEAD =           0.0000
               WELLS =        3376.5024                 WELLS =         198.4721
       RIVER LEAKAGE =         204.2491         RIVER LEAKAGE =           0.0000
            RECHARGE =           0.0000              RECHARGE =           0.0000

           TOTAL OUT =      878152.5625             TOTAL OUT =       14228.3896

            IN - OUT =         -13.9375              IN - OUT =          -0.1875

 PERCENT DISCREPANCY =          -0.00     PERCENT DISCREPANCY =          -0.00






         TIME SUMMARY AT END OF TIME STEP   16 IN STRESS PERIOD    2
                    SECONDS     MINUTES      HOURS       DAYS        YEARS
                    -----------------------------------------------------------
   TIME STEP LENGTH  86400.      1440.0      24.000      1.0000     2.73785E-03
 STRESS PERIOD TIME 1.38240E+06  23040.      384.00      16.000     4.38056E-02
         TOTAL TIME 1.46880E+06  24480.      408.00      17.000     4.65435E-02
1

 SOLVING FOR HEAD 

    ------------------------------------------------
       NWT REQUIRED            4 OUTER ITERATIONS 
       AND A TOTAL OF          4 INNER ITERATIONS.
    ------------------------------------------------

 OUTPUT CONTROL FOR STRESS PERIOD    2   TIME STEP   17
    SAVE HEAD FOR ALL LAYERS
    SAVE DRAWDOWN FOR ALL LAYERS
    SAVE BUDGET
    PRINT HEAD FOR ALL LAYERS
    PRINT BUDGET
1
              HEAD IN LAYER   1 AT END OF TIME STEP  17 IN STRESS PERIOD    2
  ---------------------------------------------------------------------------

            1           2           3           4           5           6           7           8           9          10
           11          12          13          14          15          16          17          18          19          20
 ........................................................................................................................
   1    0.000       0.000       0.000       0.000       0.000       7.294       7.281       7.308       7.330       7.343    
        7.347       7.347       7.449       8.337       7.444       7.340       7.354       7.366       0.000       0.000    
   2    0.000       0.000       0.000       0.000       7.315       7.297       7.244       7.305       7.329       7.342    
        7.346       7.345       7.426       8.344       7.417       7.322       7.347       7.365       0.000       0.000    
   3    0.000       0.000       0.000       7.332       7.331       7.399       7.421       7.414       7.403       7.407    
        7.407       7.392       7.401       8.349       7.379       7.268       7.339       7.366       0.000       0.000    
   4    0.000       0.000       7.348       7.368       7.464       8.331       8.322       8.334       8.349       8.344    
        8.334       8.232       7.509       8.358       7.397       7.333       7.360       7.379       0.000       0.000    
   5    0.000       0.000       7.667       7.968       8.349       8.263       7.486       7.434       7.423       7.420    
        7.462       8.313       8.359       8.235       7.396       7.362       7.380       7.398       7.415       0.000    
   6    0.000       8.361       8.364       8.333       7.838       7.431       7.371       7.371       7.370       7.364    
        7.361       7.415       7.428       7.412       7.370       7.378       7.390       7.403       7.417       0.000    
   7    0.000       7.432       7.440       7.435       7.398       7.384       7.387       7.387       7.381       7.370    
        7.360       7.363       7.369       7.374       7.378       7.382       7.387       7.395       0.000       0.000    
   8    0.000       7.378       7.391       7.397       7.400       7.404       7.405       7.400       7.388       7.368    
        7.345       7.359       7.371       7.378       7.379       7.375       7.371       7.379       0.000       0.000    
   9    0.000       0.000       7.414       7.416       7.419       7.420       7.418       7.409       7.391       7.358    
        7.287       7.348       7.371       7.378       7.373       7.356       7.335       7.358       7.376       7.388    
  10    0.000       0.000       7.426       7.427       7.429       7.428       7.424       7.413       7.395       7.368    
        7.338       7.357       7.372       7.376       7.365       7.330       7.251       7.332       7.369       7.386    

 HEAD WILL BE SAVED ON UNIT   51 AT END OF TIME STEP   17, STRESS PERIOD    2

 DRAWDOWN WILL BE SAVED ON UNIT   52 AT END OF TIME STEP   17, STRESS PERIOD    2
1
  VOLUMETRIC BUDGET FOR ENTIRE MODEL AT END OF TIME STEP   17, STRESS PERIOD   2
  ------------------------------------------------------------------------------

     CUMULATIVE VOLUMES      L**3       RATES FOR THIS TIME STEP      L**3/T
     ------------------                 ------------------------

           IN:                                      IN:
           ---                                      ---
             STORAGE =           0.0000               STORAGE =           0.0000
       CONSTANT HEAD =           0.0000         CONSTANT HEAD =           0.0000
               WELLS =           0.0000                 WELLS =           0.0000
       RIVER LEAKAGE =      881523.0000         RIVER LEAKAGE =       12820.7148
            RECHARGE =       10000.7666              RECHARGE =         564.4509

            TOTAL IN =      891523.7500              TOTAL IN =       13385.1660

          OUT:                                     OUT:
          ----                                     ----
             STORAGE =      887758.6875               STORAGE =       13186.8691
       CONSTANT HEAD =           0.0000         CONSTANT HEAD =           0.0000
               WELLS =        3574.9746                 WELLS =         198.4721
       RIVER LEAKAGE =         204.2491         RIVER LEAKAGE =           0.0000
            RECHARGE =           0.0000              RECHARGE =           0.0000

           TOTAL OUT =      891537.9375             TOTAL OUT =       13385.3408

            IN - OUT =         -14.1875              IN - OUT =          -0.1748

 PERCENT DISCREPANCY =          -0.00     PERCENT DISCREPANCY =          -0.00






         TIME SUMMARY AT END OF TIME STEP   17 IN STRESS PERIOD    2
                    SECONDS     MINUTES      HOURS       DAYS        YEARS
                    -----------------------------------------------------------
   TIME STEP LENGTH  86400.      1440.0      24.000      1.0000     2.73785E-03
 STRESS PERIOD TIME 1.46880E+06  24480.      408.00      17.000     4.65435E-02
         TOTAL TIME 1.55520E+06  25920.      432.00      18.000     4.92813E-02
1

 SOLVING FOR HEAD 

    ------------------------------------------------
       NWT REQUIRED            3 OUTER ITERATIONS 
       AND A TOTAL OF          3 INNER ITERATIONS.
    ------------------------------------------------

 OUTPUT CONTROL FOR STRESS PERIOD    2   TIME STEP   18
    SAVE HEAD FOR ALL LAYERS
    SAVE DRAWDOWN FOR ALL LAYERS
    SAVE BUDGET
    PRINT HEAD FOR ALL LAYERS
    PRINT BUDGET
1
              HEAD IN LAYER   1 AT END OF TIME STEP  18 IN STRESS PERIOD    2
  ---------------------------------------------------------------------------

            1           2           3           4           5           6           7           8           9          10
           11          12          13          14          15          16          17          18          19          20
 ........................................................................................................................
   1    0.000       0.000       0.000       0.000       0.000       7.294       7.281       7.308       7.330       7.343    
        7.347       7.348       7.456       8.338       7.451       7.341       7.354       7.366       0.000       0.000    
   2    0.000       0.000       0.000       0.000       7.315       7.298       7.245       7.306       7.330       7.342    
        7.346       7.346       7.432       8.346       7.423       7.323       7.347       7.365       0.000       0.000    
   3    0.000       0.000       0.000       7.333       7.332       7.405       7.428       7.421       7.408       7.412    
        7.412       7.397       7.407       8.351       7.384       7.268       7.339       7.366       0.000       0.000    
   4    0.000       0.000       7.350       7.372       7.473       8.334       8.325       8.336       8.350       8.346    
        8.338       8.244       7.521       8.359       7.401       7.333       7.360       7.379       0.000       0.000    
   5    0.000       0.000       7.683       7.989       8.352       8.273       7.496       7.440       7.428       7.426    
        7.470       8.318       8.360       8.247       7.400       7.363       7.380       7.398       7.415       0.000    
   6    0.000       8.363       8.365       8.337       7.857       7.437       7.373       7.372       7.370       7.365    
        7.362       7.420       7.433       7.416       7.371       7.378       7.391       7.403       7.417       0.000    
   7    0.000       7.437       7.445       7.440       7.401       7.385       7.387       7.387       7.381       7.370    
        7.360       7.363       7.369       7.374       7.378       7.382       7.387       7.395       0.000       0.000    
   8    0.000       7.378       7.392       7.397       7.400       7.404       7.405       7.400       7.388       7.368    
        7.345       7.359       7.372       7.378       7.379       7.375       7.371       7.379       0.000       0.000    
   9    0.000       0.000       7.414       7.416       7.419       7.420       7.418       7.409       7.391       7.358    
        7.287       7.348       7.371       7.378       7.373       7.356       7.335       7.358       7.376       7.388    
  10    0.000       0.000       7.426       7.427       7.429       7.428       7.424       7.413       7.395       7.368    
        7.338       7.357       7.372       7.376       7.365       7.330       7.251       7.332       7.370       7.386    

 HEAD WILL BE SAVED ON UNIT   51 AT END OF TIME STEP   18, STRESS PERIOD    2

 DRAWDOWN WILL BE SAVED ON UNIT   52 AT END OF TIME STEP   18, STRESS PERIOD    2
1
  VOLUMETRIC BUDGET FOR ENTIRE MODEL AT END OF TIME STEP   18, STRESS PERIOD   2
  ------------------------------------------------------------------------------

     CUMULATIVE VOLUMES      L**3       RATES FOR THIS TIME STEP      L**3/T
     ------------------                 ------------------------

           IN:                                      IN:
           ---                                      ---
             STORAGE =           0.0000               STORAGE =           0.0000
       CONSTANT HEAD =           0.0000         CONSTANT HEAD =           0.0000
               WELLS =           0.0000                 WELLS =           0.0000
       RIVER LEAKAGE =      893651.1875         RIVER LEAKAGE =       12128.1973
            RECHARGE =       10565.2178              RECHARGE =         564.4509

            TOTAL IN =      904216.3750              TOTAL IN =       12692.6484

          OUT:                                     OUT:
          ----                                     ----
             STORAGE =      900256.1875               STORAGE =       12497.4717
       CONSTANT HEAD =           0.0000         CONSTANT HEAD =           0.0000
               WELLS =        3773.4468                 WELLS =         198.4721
       RIVER LEAKAGE =         204.2491         RIVER LEAKAGE =           0.0000
            RECHARGE =           0.0000              RECHARGE =           0.0000

           TOTAL OUT =      904233.8750             TOTAL OUT =       12695.9434

            IN - OUT =         -17.5000              IN - OUT =          -3.2949

 PERCENT DISCREPANCY =          -0.00     PERCENT DISCREPANCY =          -0.03






         TIME SUMMARY AT END OF TIME STEP   18 IN STRESS PERIOD    2
                    SECONDS     MINUTES      HOURS       DAYS        YEARS
                    -----------------------------------------------------------
   TIME STEP LENGTH  86400.      1440.0      24.000      1.0000     2.73785E-03
 STRESS PERIOD TIME 1.55520E+06  25920.      432.00      18.000     4.92813E-02
         TOTAL TIME 1.64160E+06  27360.      456.00      19.000     5.20192E-02
1

 SOLVING FOR HEAD 

    ------------------------------------------------
       NWT REQUIRED            3 OUTER ITERATIONS 
       AND A TOTAL OF          3 INNER ITERATIONS.
    ------------------------------------------------

 OUTPUT CONTROL FOR STRESS PERIOD    2   TIME STEP   19
    SAVE HEAD FOR ALL LAYERS
    SAVE DRAWDOWN FOR ALL LAYERS
    SAVE BUDGET
    PRINT HEAD FOR ALL LAYERS
    PRINT BUDGET
1
              HEAD IN LAYER   1 AT END OF TIME STEP  19 IN STRESS PERIOD    2
  ---------------------------------------------------------------------------

            1           2           3           4           5           6           7           8           9          10
           11          12          13          14          15          16          17          18          19          20
 ........................................................................................................................
   1    0.000       0.000       0.000       0.000       0.000       7.294       7.281       7.308       7.330       7.343    
        7.347       7.348       7.463       8.340       7.458       7.341       7.354       7.366       0.000       0.000    
   2    0.000       0.000       0.000       0.000       7.315       7.298       7.246       7.307       7.330       7.343    
        7.347       7.347       7.439       8.347       7.429       7.323       7.347       7.365       0.000       0.000    
   3    0.000       0.000       0.000       7.333       7.333       7.411       7.436       7.428       7.413       7.417    
        7.417       7.402       7.412       8.353       7.388       7.269       7.339       7.366       0.000       0.000    
   4    0.000       0.000       7.352       7.376       7.482       8.337       8.327       8.338       8.351       8.348    
        8.340       8.255       7.532       8.360       7.405       7.333       7.360       7.379       0.000       0.000    
   5    0.000       0.000       7.699       8.008       8.353       8.282       7.506       7.446       7.434       7.431    
        7.478       8.323       8.360       8.257       7.404       7.363       7.380       7.398       7.416       0.000    
   6    0.000       8.365       8.365       8.340       7.876       7.444       7.374       7.373       7.371       7.365    
        7.363       7.424       7.438       7.421       7.372       7.378       7.391       7.403       7.417       0.000    
   7    0.000       7.442       7.451       7.445       7.404       7.385       7.387       7.387       7.381       7.370    
        7.360       7.364       7.370       7.374       7.378       7.382       7.387       7.395       0.000       0.000    
   8    0.000       7.379       7.392       7.398       7.401       7.404       7.405       7.400       7.388       7.368    
        7.345       7.359       7.372       7.378       7.379       7.375       7.371       7.379       0.000       0.000    
   9    0.000       0.000       7.414       7.416       7.419       7.420       7.418       7.409       7.391       7.358    
        7.287       7.348       7.371       7.378       7.373       7.356       7.335       7.358       7.376       7.388    
  10    0.000       0.000       7.426       7.427       7.429       7.428       7.424       7.413       7.395       7.368    
        7.339       7.357       7.373       7.376       7.365       7.330       7.251       7.332       7.370       7.386    

 HEAD WILL BE SAVED ON UNIT   51 AT END OF TIME STEP   19, STRESS PERIOD    2

 DRAWDOWN WILL BE SAVED ON UNIT   52 AT END OF TIME STEP   19, STRESS PERIOD    2
1
  VOLUMETRIC BUDGET FOR ENTIRE MODEL AT END OF TIME STEP   19, STRESS PERIOD   2
  ------------------------------------------------------------------------------

     CUMULATIVE VOLUMES      L**3       RATES FOR THIS TIME STEP      L**3/T
     ------------------                 ------------------------

           IN:                                      IN:
           ---                                      ---
             STORAGE =           0.0000               STORAGE =           0.0000
       CONSTANT HEAD =           0.0000         CONSTANT HEAD =           0.0000
               WELLS =           0.0000                 WELLS =           0.0000
       RIVER LEAKAGE =      905204.6250         RIVER LEAKAGE =       11553.4248
            RECHARGE =       11129.6689              RECHARGE =         564.4509

            TOTAL IN =      916334.3125              TOTAL IN =       12117.8760

          OUT:                                     OUT:
          ----                                     ----
             STORAGE =      912178.6875               STORAGE =       11922.5264
       CONSTANT HEAD =           0.0000         CONSTANT HEAD =           0.0000
               WELLS =        3971.9189                 WELLS =         198.4721
       RIVER LEAKAGE =         204.2491         RIVER LEAKAGE =           0.0000
            RECHARGE =           0.0000              RECHARGE =           0.0000

           TOTAL OUT =      916354.8750             TOTAL OUT =       12120.9980

            IN - OUT =         -20.5625              IN - OUT =          -3.1221

 PERCENT DISCREPANCY =          -0.00     PERCENT DISCREPANCY =          -0.03






         TIME SUMMARY AT END OF TIME STEP   19 IN STRESS PERIOD    2
                    SECONDS     MINUTES      HOURS       DAYS        YEARS
                    -----------------------------------------------------------
   TIME STEP LENGTH  86400.      1440.0      24.000      1.0000     2.73785E-03
 STRESS PERIOD TIME 1.64160E+06  27360.      456.00      19.000     5.20192E-02
         TOTAL TIME 1.72800E+06  28800.      480.00      20.000     5.47570E-02
1

 SOLVING FOR HEAD 

    ------------------------------------------------
       NWT REQUIRED            3 OUTER ITERATIONS 
       AND A TOTAL OF          3 INNER ITERATIONS.
    ------------------------------------------------

 OUTPUT CONTROL FOR STRESS PERIOD    2   TIME STEP   20
    SAVE HEAD FOR ALL LAYERS
    SAVE DRAWDOWN FOR ALL LAYERS
    SAVE BUDGET
    PRINT HEAD FOR ALL LAYERS
    PRINT BUDGET
1
              HEAD IN LAYER   1 AT END OF TIME STEP  20 IN STRESS PERIOD    2
  ---------------------------------------------------------------------------

            1           2           3           4           5           6           7           8           9          10
           11          12          13          14          15          16          17          18          19          20
 ........................................................................................................................
   1    0.000       0.000       0.000       0.000       0.000       7.294       7.281       7.308       7.330       7.343    
        7.347       7.349       7.471       8.340       7.466       7.342       7.354       7.366       0.000       0.000    
   2    0.000       0.000       0.000       0.000       7.315       7.299       7.247       7.307       7.331       7.343    
        7.347       7.348       7.445       8.348       7.435       7.324       7.347       7.365       0.000       0.000    
   3    0.000       0.000       0.000       7.333       7.335       7.416       7.444       7.434       7.418       7.422    
        7.422       7.406       7.418       8.354       7.393       7.269       7.339       7.366       0.000       0.000    
   4    0.000       0.000       7.354       7.380       7.491       8.339       8.328       8.339       8.352       8.349    
        8.342       8.264       7.544       8.361       7.409       7.334       7.360       7.379       0.000       0.000    
   5    0.000       0.000       7.715       8.026       8.355       8.289       7.516       7.453       7.439       7.436    
        7.487       8.327       8.361       8.266       7.408       7.363       7.380       7.398       7.416       0.000    
   6    0.000       8.366       8.366       8.343       7.893       7.450       7.375       7.373       7.371       7.366    
        7.364       7.429       7.442       7.425       7.372       7.378       7.391       7.403       7.417       0.000    
   7    0.000       7.447       7.456       7.450       7.407       7.386       7.387       7.387       7.381       7.370    
        7.360       7.364       7.370       7.375       7.378       7.382       7.387       7.395       0.000       0.000    
   8    0.000       7.379       7.393       7.398       7.401       7.404       7.405       7.401       7.388       7.368    
        7.345       7.359       7.372       7.378       7.379       7.375       7.371       7.379       0.000       0.000    
   9    0.000       0.000       7.414       7.416       7.419       7.420       7.418       7.409       7.391       7.358    
        7.287       7.348       7.371       7.378       7.373       7.356       7.335       7.358       7.376       7.388    
  10    0.000       0.000       7.426       7.427       7.429       7.428       7.424       7.414       7.395       7.368    
        7.339       7.357       7.373       7.376       7.365       7.330       7.252       7.332       7.370       7.386    

 HEAD WILL BE SAVED ON UNIT   51 AT END OF TIME STEP   20, STRESS PERIOD    2

 DRAWDOWN WILL BE SAVED ON UNIT   52 AT END OF TIME STEP   20, STRESS PERIOD    2
1
  VOLUMETRIC BUDGET FOR ENTIRE MODEL AT END OF TIME STEP   20, STRESS PERIOD   2
  ------------------------------------------------------------------------------

     CUMULATIVE VOLUMES      L**3       RATES FOR THIS TIME STEP      L**3/T
     ------------------                 ------------------------

           IN:                                      IN:
           ---                                      ---
             STORAGE =           0.0000               STORAGE =           0.0000
       CONSTANT HEAD =           0.0000         CONSTANT HEAD =           0.0000
               WELLS =           0.0000                 WELLS =           0.0000
       RIVER LEAKAGE =      916275.8125         RIVER LEAKAGE =       11071.1904
            RECHARGE =       11694.1201              RECHARGE =         564.4509

            TOTAL IN =      927969.9375              TOTAL IN =       11635.6416

          OUT:                                     OUT:
          ----                                     ----
             STORAGE =      923618.8125               STORAGE =       11440.1484
       CONSTANT HEAD =           0.0000         CONSTANT HEAD =           0.0000
               WELLS =        4170.3911                 WELLS =         198.4721
       RIVER LEAKAGE =         204.2491         RIVER LEAKAGE =           0.0000
            RECHARGE =           0.0000              RECHARGE =           0.0000

           TOTAL OUT =      927993.4375             TOTAL OUT =       11638.6201

            IN - OUT =         -23.5000              IN - OUT =          -2.9785

 PERCENT DISCREPANCY =          -0.00     PERCENT DISCREPANCY =          -0.03






         TIME SUMMARY AT END OF TIME STEP   20 IN STRESS PERIOD    2
                    SECONDS     MINUTES      HOURS       DAYS        YEARS
                    -----------------------------------------------------------
   TIME STEP LENGTH  86400.      1440.0      24.000      1.0000     2.73785E-03
 STRESS PERIOD TIME 1.72800E+06  28800.      480.00      20.000     5.47570E-02
         TOTAL TIME 1.81440E+06  30240.      504.00      21.000     5.74949E-02
1

 SOLVING FOR HEAD 

    ------------------------------------------------
       NWT REQUIRED            3 OUTER ITERATIONS 
       AND A TOTAL OF          3 INNER ITERATIONS.
    ------------------------------------------------

 OUTPUT CONTROL FOR STRESS PERIOD    2   TIME STEP   21
    SAVE HEAD FOR ALL LAYERS
    SAVE DRAWDOWN FOR ALL LAYERS
    SAVE BUDGET
    PRINT HEAD FOR ALL LAYERS
    PRINT BUDGET
1
              HEAD IN LAYER   1 AT END OF TIME STEP  21 IN STRESS PERIOD    2
  ---------------------------------------------------------------------------

            1           2           3           4           5           6           7           8           9          10
           11          12          13          14          15          16          17          18          19          20
 ........................................................................................................................
   1    0.000       0.000       0.000       0.000       0.000       7.294       7.281       7.308       7.330       7.343    
        7.347       7.350       7.478       8.341       7.473       7.343       7.354       7.366       0.000       0.000    
   2    0.000       0.000       0.000       0.000       7.315       7.299       7.248       7.308       7.332       7.344    
        7.348       7.349       7.451       8.348       7.441       7.324       7.347       7.365       0.000       0.000    
   3    0.000       0.000       0.000       7.334       7.336       7.422       7.451       7.441       7.423       7.427    
        7.427       7.411       7.423       8.355       7.397       7.270       7.339       7.366       0.000       0.000    
   4    0.000       0.000       7.357       7.384       7.499       8.340       8.330       8.340       8.353       8.350    
        8.344       8.272       7.556       8.362       7.414       7.334       7.360       7.379       0.000       0.000    
   5    0.000       0.000       7.730       8.043       8.356       8.295       7.525       7.459       7.444       7.441    
        7.495       8.330       8.362       8.273       7.412       7.363       7.380       7.398       7.416       0.000    
   6    0.000       8.367       8.366       8.345       7.910       7.457       7.377       7.374       7.372       7.366    
        7.365       7.434       7.447       7.430       7.373       7.378       7.391       7.403       7.417       0.000    
   7    0.000       7.452       7.461       7.455       7.410       7.387       7.387       7.387       7.381       7.370    
        7.360       7.365       7.371       7.375       7.378       7.382       7.387       7.395       0.000       0.000    
   8    0.000       7.380       7.393       7.399       7.401       7.404       7.405       7.401       7.388       7.368    
        7.345       7.359       7.372       7.378       7.379       7.375       7.371       7.379       0.000       0.000    
   9    0.000       0.000       7.414       7.416       7.419       7.420       7.418       7.409       7.391       7.358    
        7.287       7.348       7.371       7.378       7.373       7.356       7.335       7.358       7.376       7.388    
  10    0.000       0.000       7.426       7.427       7.429       7.428       7.424       7.414       7.395       7.368    
        7.339       7.357       7.373       7.376       7.365       7.330       7.252       7.332       7.370       7.386    

 HEAD WILL BE SAVED ON UNIT   51 AT END OF TIME STEP   21, STRESS PERIOD    2

 DRAWDOWN WILL BE SAVED ON UNIT   52 AT END OF TIME STEP   21, STRESS PERIOD    2
1
  VOLUMETRIC BUDGET FOR ENTIRE MODEL AT END OF TIME STEP   21, STRESS PERIOD   2
  ------------------------------------------------------------------------------

     CUMULATIVE VOLUMES      L**3       RATES FOR THIS TIME STEP      L**3/T
     ------------------                 ------------------------

           IN:                                      IN:
           ---                                      ---
             STORAGE =           0.0000               STORAGE =           0.0000
       CONSTANT HEAD =           0.0000         CONSTANT HEAD =           0.0000
               WELLS =           0.0000                 WELLS =           0.0000
       RIVER LEAKAGE =      926937.9375         RIVER LEAKAGE =       10662.1504
            RECHARGE =       12258.5713              RECHARGE =         564.4509

            TOTAL IN =      939196.5000              TOTAL IN =       11226.6016

          OUT:                                     OUT:
          ----                                     ----
             STORAGE =      934649.8125               STORAGE =       11030.9873
       CONSTANT HEAD =           0.0000         CONSTANT HEAD =           0.0000
               WELLS =        4368.8633                 WELLS =         198.4721
       RIVER LEAKAGE =         204.2491         RIVER LEAKAGE =           0.0000
            RECHARGE =           0.0000              RECHARGE =           0.0000

           TOTAL OUT =      939222.9375             TOTAL OUT =       11229.4590

            IN - OUT =         -26.4375              IN - OUT =          -2.8574

 PERCENT DISCREPANCY =          -0.00     PERCENT DISCREPANCY =          -0.03






         TIME SUMMARY AT END OF TIME STEP   21 IN STRESS PERIOD    2
                    SECONDS     MINUTES      HOURS       DAYS        YEARS
                    -----------------------------------------------------------
   TIME STEP LENGTH  86400.      1440.0      24.000      1.0000     2.73785E-03
 STRESS PERIOD TIME 1.81440E+06  30240.      504.00      21.000     5.74949E-02
         TOTAL TIME 1.90080E+06  31680.      528.00      22.000     6.02327E-02
1

 SOLVING FOR HEAD 

    ------------------------------------------------
       NWT REQUIRED            3 OUTER ITERATIONS 
       AND A TOTAL OF          3 INNER ITERATIONS.
    ------------------------------------------------

 OUTPUT CONTROL FOR STRESS PERIOD    2   TIME STEP   22
    SAVE HEAD FOR ALL LAYERS
    SAVE DRAWDOWN FOR ALL LAYERS
    SAVE BUDGET
    PRINT HEAD FOR ALL LAYERS
    PRINT BUDGET
1
              HEAD IN LAYER   1 AT END OF TIME STEP  22 IN STRESS PERIOD    2
  ---------------------------------------------------------------------------

            1           2           3           4           5           6           7           8           9          10
           11          12          13          14          15          16          17          18          19          20
 ........................................................................................................................
   1    0.000       0.000       0.000       0.000       0.000       7.294       7.281       7.308       7.330       7.343    
        7.347       7.351       7.485       8.342       7.480       7.343       7.354       7.366       0.000       0.000    
   2    0.000       0.000       0.000       0.000       7.315       7.300       7.249       7.309       7.332       7.344    
        7.348       7.350       7.457       8.349       7.447       7.325       7.347       7.365       0.000       0.000    
   3    0.000       0.000       0.000       7.334       7.338       7.428       7.458       7.447       7.428       7.432    
        7.432       7.416       7.429       8.356       7.402       7.270       7.339       7.366       0.000       0.000    
   4    0.000       0.000       7.359       7.388       7.507       8.342       8.331       8.341       8.354       8.351    
        8.345       8.279       7.567       8.362       7.418       7.334       7.360       7.379       0.000       0.000    
   5    0.000       0.000       7.745       8.058       8.357       8.301       7.535       7.465       7.449       7.447    
        7.503       8.333       8.362       8.280       7.416       7.364       7.380       7.398       7.416       0.000    
   6    0.000       8.367       8.367       8.347       7.926       7.463       7.378       7.375       7.372       7.367    
        7.366       7.438       7.452       7.434       7.374       7.378       7.391       7.403       7.417       0.000    
   7    0.000       7.457       7.466       7.460       7.413       7.387       7.388       7.387       7.381       7.371    
        7.360       7.365       7.371       7.376       7.378       7.382       7.387       7.395       0.000       0.000    
   8    0.000       7.381       7.394       7.399       7.401       7.404       7.405       7.401       7.388       7.368    
        7.345       7.359       7.372       7.378       7.379       7.375       7.371       7.379       0.000       0.000    
   9    0.000       0.000       7.414       7.416       7.419       7.420       7.418       7.409       7.391       7.358    
        7.288       7.348       7.371       7.378       7.373       7.357       7.335       7.358       7.376       7.388    
  10    0.000       0.000       7.426       7.427       7.429       7.428       7.424       7.414       7.395       7.368    
        7.339       7.357       7.373       7.376       7.365       7.330       7.252       7.332       7.370       7.386    

 HEAD WILL BE SAVED ON UNIT   51 AT END OF TIME STEP   22, STRESS PERIOD    2

 DRAWDOWN WILL BE SAVED ON UNIT   52 AT END OF TIME STEP   22, STRESS PERIOD    2
1
  VOLUMETRIC BUDGET FOR ENTIRE MODEL AT END OF TIME STEP   22, STRESS PERIOD   2
  ------------------------------------------------------------------------------

     CUMULATIVE VOLUMES      L**3       RATES FOR THIS TIME STEP      L**3/T
     ------------------                 ------------------------

           IN:                                      IN:
           ---                                      ---
             STORAGE =           0.0000               STORAGE =           0.0000
       CONSTANT HEAD =           0.0000         CONSTANT HEAD =           0.0000
               WELLS =           0.0000                 WELLS =           0.0000
       RIVER LEAKAGE =      937249.3750         RIVER LEAKAGE =       10311.4648
            RECHARGE =       12823.0225              RECHARGE =         564.4509

            TOTAL IN =      950072.3750              TOTAL IN =       10875.9160

          OUT:                                     OUT:
          ----                                     ----
             STORAGE =      945330.0000               STORAGE =       10680.2002
       CONSTANT HEAD =           0.0000         CONSTANT HEAD =           0.0000
               WELLS =        4567.3354                 WELLS =         198.4721
       RIVER LEAKAGE =         204.2491         RIVER LEAKAGE =           0.0000
            RECHARGE =           0.0000              RECHARGE =           0.0000

           TOTAL OUT =      950101.5625             TOTAL OUT =       10878.6719

            IN - OUT =         -29.1875              IN - OUT =          -2.7559

 PERCENT DISCREPANCY =          -0.00     PERCENT DISCREPANCY =          -0.03






         TIME SUMMARY AT END OF TIME STEP   22 IN STRESS PERIOD    2
                    SECONDS     MINUTES      HOURS       DAYS        YEARS
                    -----------------------------------------------------------
   TIME STEP LENGTH  86400.      1440.0      24.000      1.0000     2.73785E-03
 STRESS PERIOD TIME 1.90080E+06  31680.      528.00      22.000     6.02327E-02
         TOTAL TIME 1.98720E+06  33120.      552.00      23.000     6.29706E-02
1

 SOLVING FOR HEAD 

    ------------------------------------------------
       NWT REQUIRED            3 OUTER ITERATIONS 
       AND A TOTAL OF          3 INNER ITERATIONS.
    ------------------------------------------------

 OUTPUT CONTROL FOR STRESS PERIOD    2   TIME STEP   23
    SAVE HEAD FOR ALL LAYERS
    SAVE DRAWDOWN FOR ALL LAYERS
    SAVE BUDGET
    PRINT HEAD FOR ALL LAYERS
    PRINT BUDGET
1
              HEAD IN LAYER   1 AT END OF TIME STEP  23 IN STRESS PERIOD    2
  ---------------------------------------------------------------------------

            1           2           3           4           5           6           7           8           9          10
           11          12          13          14          15          16          17          18          19          20
 ........................................................................................................................
   1    0.000       0.000       0.000       0.000       0.000       7.294       7.282       7.308       7.330       7.343    
        7.347       7.351       7.492       8.342       7.487       7.344       7.354       7.366       0.000       0.000    
   2    0.000       0.000       0.000       0.000       7.316       7.301       7.250       7.310       7.333       7.345    
        7.349       7.351       7.463       8.349       7.453       7.325       7.347       7.365       0.000       0.000    
   3    0.000       0.000       0.000       7.335       7.339       7.433       7.466       7.454       7.433       7.437    
        7.436       7.421       7.434       8.356       7.406       7.271       7.339       7.366       0.000       0.000    
   4    0.000       0.000       7.362       7.392       7.515       8.343       8.332       8.342       8.354       8.351    
        8.346       8.286       7.578       8.363       7.422       7.335       7.360       7.379       0.000       0.000    
   5    0.000       0.000       7.760       8.073       8.358       8.306       7.544       7.470       7.454       7.452    
        7.511       8.335       8.362       8.285       7.419       7.364       7.380       7.398       7.416       0.000    
   6    0.000       8.368       8.367       8.349       7.941       7.470       7.380       7.375       7.373       7.367    
        7.367       7.443       7.457       7.439       7.374       7.378       7.391       7.403       7.417       0.000    
   7    0.000       7.462       7.470       7.465       7.416       7.388       7.388       7.387       7.381       7.371    
        7.360       7.366       7.372       7.376       7.378       7.382       7.387       7.395       0.000       0.000    
   8    0.000       7.381       7.395       7.400       7.402       7.405       7.405       7.401       7.388       7.368    
        7.345       7.359       7.372       7.378       7.379       7.375       7.371       7.379       0.000       0.000    
   9    0.000       0.000       7.414       7.417       7.419       7.420       7.418       7.409       7.391       7.358    
        7.288       7.348       7.371       7.378       7.373       7.357       7.335       7.358       7.376       7.388    
  10    0.000       0.000       7.426       7.427       7.429       7.428       7.424       7.414       7.395       7.368    
        7.339       7.357       7.373       7.376       7.365       7.331       7.252       7.333       7.370       7.386    

 HEAD WILL BE SAVED ON UNIT   51 AT END OF TIME STEP   23, STRESS PERIOD    2

 DRAWDOWN WILL BE SAVED ON UNIT   52 AT END OF TIME STEP   23, STRESS PERIOD    2
1
  VOLUMETRIC BUDGET FOR ENTIRE MODEL AT END OF TIME STEP   23, STRESS PERIOD   2
  ------------------------------------------------------------------------------

     CUMULATIVE VOLUMES      L**3       RATES FOR THIS TIME STEP      L**3/T
     ------------------                 ------------------------

           IN:                                      IN:
           ---                                      ---
             STORAGE =           0.0000               STORAGE =           0.0000
       CONSTANT HEAD =           0.0000         CONSTANT HEAD =           0.0000
               WELLS =           0.0000                 WELLS =           0.0000
       RIVER LEAKAGE =      947257.0000         RIVER LEAKAGE =       10007.6270
            RECHARGE =       13387.4736              RECHARGE =         564.4509

            TOTAL IN =      960644.5000              TOTAL IN =       10572.0781

          OUT:                                     OUT:
          ----                                     ----
             STORAGE =      955706.2500               STORAGE =       10376.2744
       CONSTANT HEAD =           0.0000         CONSTANT HEAD =           0.0000
               WELLS =        4765.8076                 WELLS =         198.4721
       RIVER LEAKAGE =         204.2491         RIVER LEAKAGE =           0.0000
            RECHARGE =           0.0000              RECHARGE =           0.0000

           TOTAL OUT =      960676.3125             TOTAL OUT =       10574.7461

            IN - OUT =         -31.8125              IN - OUT =          -2.6680

 PERCENT DISCREPANCY =          -0.00     PERCENT DISCREPANCY =          -0.03






         TIME SUMMARY AT END OF TIME STEP   23 IN STRESS PERIOD    2
                    SECONDS     MINUTES      HOURS       DAYS        YEARS
                    -----------------------------------------------------------
   TIME STEP LENGTH  86400.      1440.0      24.000      1.0000     2.73785E-03
 STRESS PERIOD TIME 1.98720E+06  33120.      552.00      23.000     6.29706E-02
         TOTAL TIME 2.07360E+06  34560.      576.00      24.000     6.57084E-02
1

 SOLVING FOR HEAD 

    ------------------------------------------------
       NWT REQUIRED            3 OUTER ITERATIONS 
       AND A TOTAL OF          3 INNER ITERATIONS.
    ------------------------------------------------

 OUTPUT CONTROL FOR STRESS PERIOD    2   TIME STEP   24
    SAVE HEAD FOR ALL LAYERS
    SAVE DRAWDOWN FOR ALL LAYERS
    SAVE BUDGET
    PRINT HEAD FOR ALL LAYERS
    PRINT BUDGET
1
              HEAD IN LAYER   1 AT END OF TIME STEP  24 IN STRESS PERIOD    2
  ---------------------------------------------------------------------------

            1           2           3           4           5           6           7           8           9          10
           11          12          13          14          15          16          17          18          19          20
 ........................................................................................................................
   1    0.000       0.000       0.000       0.000       0.000       7.294       7.282       7.308       7.330       7.343    
        7.347       7.352       7.499       8.343       7.494       7.345       7.354       7.366       0.000       0.000    
   2    0.000       0.000       0.000       0.000       7.316       7.302       7.251       7.311       7.333       7.345    
        7.349       7.352       7.469       8.350       7.459       7.326       7.348       7.365       0.000       0.000    
   3    0.000       0.000       0.000       7.335       7.341       7.439       7.473       7.460       7.438       7.442    
        7.441       7.426       7.440       8.357       7.411       7.271       7.340       7.366       0.000       0.000    
   4    0.000       0.000       7.365       7.397       7.523       8.344       8.333       8.342       8.355       8.352    
        8.347       8.291       7.589       8.363       7.426       7.335       7.360       7.379       0.000       0.000    
   5    0.000       0.000       7.774       8.087       8.359       8.310       7.553       7.476       7.459       7.457    
        7.518       8.337       8.363       8.290       7.423       7.364       7.380       7.398       7.416       0.000    
   6    0.000       8.369       8.367       8.350       7.955       7.476       7.381       7.376       7.374       7.368    
        7.369       7.447       7.461       7.443       7.375       7.378       7.391       7.403       7.417       0.000    
   7    0.000       7.467       7.475       7.469       7.419       7.389       7.388       7.387       7.381       7.371    
        7.360       7.366       7.373       7.377       7.378       7.383       7.387       7.395       0.000       0.000    
   8    0.000       7.382       7.395       7.401       7.402       7.405       7.405       7.401       7.389       7.368    
        7.345       7.359       7.372       7.378       7.379       7.375       7.371       7.379       0.000       0.000    
   9    0.000       0.000       7.414       7.417       7.419       7.420       7.418       7.409       7.391       7.358    
        7.288       7.348       7.371       7.378       7.373       7.357       7.335       7.358       7.376       7.388    
  10    0.000       0.000       7.426       7.428       7.429       7.428       7.424       7.414       7.395       7.368    
        7.339       7.357       7.373       7.377       7.365       7.331       7.252       7.333       7.370       7.386    

 HEAD WILL BE SAVED ON UNIT   51 AT END OF TIME STEP   24, STRESS PERIOD    2

 DRAWDOWN WILL BE SAVED ON UNIT   52 AT END OF TIME STEP   24, STRESS PERIOD    2
1
  VOLUMETRIC BUDGET FOR ENTIRE MODEL AT END OF TIME STEP   24, STRESS PERIOD   2
  ------------------------------------------------------------------------------

     CUMULATIVE VOLUMES      L**3       RATES FOR THIS TIME STEP      L**3/T
     ------------------                 ------------------------

           IN:                                      IN:
           ---                                      ---
             STORAGE =           0.0000               STORAGE =           0.0000
       CONSTANT HEAD =           0.0000         CONSTANT HEAD =           0.0000
               WELLS =           0.0000                 WELLS =           0.0000
       RIVER LEAKAGE =      956998.6250         RIVER LEAKAGE =        9741.6504
            RECHARGE =       13951.9248              RECHARGE =         564.4509

            TOTAL IN =      970950.5625              TOTAL IN =       10306.1016

          OUT:                                     OUT:
          ----                                     ----
             STORAGE =      965816.5000               STORAGE =       10110.2217
       CONSTANT HEAD =           0.0000         CONSTANT HEAD =           0.0000
               WELLS =        4964.2798                 WELLS =         198.4721
       RIVER LEAKAGE =         204.2491         RIVER LEAKAGE =           0.0000
            RECHARGE =           0.0000              RECHARGE =           0.0000

           TOTAL OUT =      970985.0000             TOTAL OUT =       10308.6934

            IN - OUT =         -34.4375              IN - OUT =          -2.5918

 PERCENT DISCREPANCY =          -0.00     PERCENT DISCREPANCY =          -0.03






         TIME SUMMARY AT END OF TIME STEP   24 IN STRESS PERIOD    2
                    SECONDS     MINUTES      HOURS       DAYS        YEARS
                    -----------------------------------------------------------
   TIME STEP LENGTH  86400.      1440.0      24.000      1.0000     2.73785E-03
 STRESS PERIOD TIME 2.07360E+06  34560.      576.00      24.000     6.57084E-02
         TOTAL TIME 2.16000E+06  36000.      600.00      25.000     6.84463E-02
1

 SOLVING FOR HEAD 

    ------------------------------------------------
       NWT REQUIRED            3 OUTER ITERATIONS 
       AND A TOTAL OF          3 INNER ITERATIONS.
    ------------------------------------------------

 OUTPUT CONTROL FOR STRESS PERIOD    2   TIME STEP   25
    SAVE HEAD FOR ALL LAYERS
    SAVE DRAWDOWN FOR ALL LAYERS
    SAVE BUDGET
    PRINT HEAD FOR ALL LAYERS
    PRINT BUDGET
1
              HEAD IN LAYER   1 AT END OF TIME STEP  25 IN STRESS PERIOD    2
  ---------------------------------------------------------------------------

            1           2           3           4           5           6           7           8           9          10
           11          12          13          14          15          16          17          18          19          20
 ........................................................................................................................
   1    0.000       0.000       0.000       0.000       0.000       7.294       7.282       7.308       7.330       7.343    
        7.348       7.353       7.506       8.343       7.500       7.346       7.354       7.366       0.000       0.000    
   2    0.000       0.000       0.000       0.000       7.316       7.302       7.252       7.312       7.334       7.346    
        7.350       7.353       7.475       8.350       7.465       7.327       7.348       7.365       0.000       0.000    
   3    0.000       0.000       0.000       7.336       7.342       7.444       7.480       7.466       7.443       7.447    
        7.446       7.431       7.445       8.357       7.415       7.272       7.340       7.366       0.000       0.000    
   4    0.000       0.000       7.367       7.401       7.531       8.345       8.334       8.343       8.355       8.352    
        8.348       8.296       7.600       8.364       7.430       7.336       7.360       7.380       0.000       0.000    
   5    0.000       0.000       7.787       8.100       8.360       8.313       7.562       7.482       7.463       7.462    
        7.526       8.338       8.363       8.295       7.427       7.365       7.380       7.398       7.416       0.000    
   6    0.000       8.369       8.368       8.351       7.968       7.482       7.383       7.377       7.374       7.369    
        7.370       7.452       7.466       7.447       7.376       7.378       7.391       7.403       7.417       0.000    
   7    0.000       7.472       7.480       7.474       7.423       7.390       7.388       7.388       7.381       7.371    
        7.361       7.367       7.373       7.377       7.378       7.383       7.387       7.395       0.000       0.000    
   8    0.000       7.383       7.396       7.401       7.402       7.405       7.405       7.401       7.389       7.368    
        7.345       7.359       7.372       7.378       7.379       7.375       7.371       7.379       0.000       0.000    
   9    0.000       0.000       7.414       7.417       7.419       7.420       7.418       7.409       7.391       7.358    
        7.288       7.348       7.371       7.378       7.373       7.357       7.335       7.358       7.376       7.388    
  10    0.000       0.000       7.426       7.428       7.429       7.428       7.424       7.414       7.395       7.368    
        7.339       7.357       7.373       7.377       7.365       7.331       7.252       7.333       7.370       7.386    

 HEAD WILL BE SAVED ON UNIT   51 AT END OF TIME STEP   25, STRESS PERIOD    2

 DRAWDOWN WILL BE SAVED ON UNIT   52 AT END OF TIME STEP   25, STRESS PERIOD    2
1
  VOLUMETRIC BUDGET FOR ENTIRE MODEL AT END OF TIME STEP   25, STRESS PERIOD   2
  ------------------------------------------------------------------------------

     CUMULATIVE VOLUMES      L**3       RATES FOR THIS TIME STEP      L**3/T
     ------------------                 ------------------------

           IN:                                      IN:
           ---                                      ---
             STORAGE =           0.0000               STORAGE =           0.0000
       CONSTANT HEAD =           0.0000         CONSTANT HEAD =           0.0000
               WELLS =           0.0000                 WELLS =           0.0000
       RIVER LEAKAGE =      966505.2500         RIVER LEAKAGE =        9506.6055
            RECHARGE =       14516.3760              RECHARGE =         564.4509

            TOTAL IN =      981021.6250              TOTAL IN =       10071.0566

          OUT:                                     OUT:
          ----                                     ----
             STORAGE =      975691.6250               STORAGE =        9875.1113
       CONSTANT HEAD =           0.0000         CONSTANT HEAD =           0.0000
               WELLS =        5162.7520                 WELLS =         198.4721
       RIVER LEAKAGE =         204.2491         RIVER LEAKAGE =           0.0000
            RECHARGE =           0.0000              RECHARGE =           0.0000

           TOTAL OUT =      981058.6250             TOTAL OUT =       10073.5830

            IN - OUT =         -37.0000              IN - OUT =          -2.5264

 PERCENT DISCREPANCY =          -0.00     PERCENT DISCREPANCY =          -0.03






         TIME SUMMARY AT END OF TIME STEP   25 IN STRESS PERIOD    2
                    SECONDS     MINUTES      HOURS       DAYS        YEARS
                    -----------------------------------------------------------
   TIME STEP LENGTH  86400.      1440.0      24.000      1.0000     2.73785E-03
 STRESS PERIOD TIME 2.16000E+06  36000.      600.00      25.000     6.84463E-02
         TOTAL TIME 2.24640E+06  37440.      624.00      26.000     7.11841E-02
1

 SOLVING FOR HEAD 

    ------------------------------------------------
       NWT REQUIRED            3 OUTER ITERATIONS 
       AND A TOTAL OF          3 INNER ITERATIONS.
    ------------------------------------------------

 OUTPUT CONTROL FOR STRESS PERIOD    2   TIME STEP   26
    SAVE HEAD FOR ALL LAYERS
    SAVE DRAWDOWN FOR ALL LAYERS
    SAVE BUDGET
    PRINT HEAD FOR ALL LAYERS
    PRINT BUDGET
1
              HEAD IN LAYER   1 AT END OF TIME STEP  26 IN STRESS PERIOD    2
  ---------------------------------------------------------------------------

            1           2           3           4           5           6           7           8           9          10
           11          12          13          14          15          16          17          18          19          20
 ........................................................................................................................
   1    0.000       0.000       0.000       0.000       0.000       7.294       7.282       7.308       7.330       7.343    
        7.348       7.354       7.512       8.344       7.507       7.346       7.354       7.366       0.000       0.000    
   2    0.000       0.000       0.000       0.000       7.316       7.303       7.253       7.313       7.335       7.347    
        7.351       7.354       7.480       8.350       7.470       7.327       7.348       7.365       0.000       0.000    
   3    0.000       0.000       0.000       7.336       7.344       7.450       7.486       7.472       7.448       7.452    
        7.451       7.435       7.451       8.358       7.419       7.272       7.340       7.367       0.000       0.000    
   4    0.000       0.000       7.370       7.405       7.539       8.345       8.334       8.343       8.355       8.353    
        8.349       8.300       7.610       8.364       7.434       7.336       7.360       7.380       0.000       0.000    
   5    0.000       0.000       7.801       8.112       8.361       8.316       7.571       7.488       7.468       7.467    
        7.533       8.340       8.363       8.299       7.431       7.365       7.380       7.398       7.416       0.000    
   6    0.000       8.369       8.368       8.352       7.981       7.489       7.385       7.378       7.375       7.369    
        7.371       7.456       7.470       7.452       7.377       7.379       7.391       7.403       7.417       0.000    
   7    0.000       7.477       7.485       7.479       7.426       7.391       7.388       7.388       7.382       7.371    
        7.361       7.367       7.374       7.378       7.379       7.383       7.387       7.395       0.000       0.000    
   8    0.000       7.383       7.397       7.402       7.403       7.405       7.406       7.401       7.389       7.369    
        7.345       7.360       7.372       7.378       7.379       7.375       7.371       7.379       0.000       0.000    
   9    0.000       0.000       7.414       7.417       7.419       7.420       7.418       7.409       7.391       7.358    
        7.288       7.348       7.371       7.378       7.373       7.357       7.335       7.358       7.376       7.388    
  10    0.000       0.000       7.426       7.428       7.429       7.428       7.424       7.414       7.395       7.368    
        7.339       7.357       7.373       7.377       7.365       7.331       7.252       7.333       7.370       7.386    

 HEAD WILL BE SAVED ON UNIT   51 AT END OF TIME STEP   26, STRESS PERIOD    2

 DRAWDOWN WILL BE SAVED ON UNIT   52 AT END OF TIME STEP   26, STRESS PERIOD    2
1
  VOLUMETRIC BUDGET FOR ENTIRE MODEL AT END OF TIME STEP   26, STRESS PERIOD   2
  ------------------------------------------------------------------------------

     CUMULATIVE VOLUMES      L**3       RATES FOR THIS TIME STEP      L**3/T
     ------------------                 ------------------------

           IN:                                      IN:
           ---                                      ---
             STORAGE =           0.0000               STORAGE =           0.0000
       CONSTANT HEAD =           0.0000         CONSTANT HEAD =           0.0000
               WELLS =           0.0000                 WELLS =           0.0000
       RIVER LEAKAGE =      975802.1875         RIVER LEAKAGE =        9296.9082
            RECHARGE =       15080.8271              RECHARGE =         564.4509

            TOTAL IN =      990883.0000              TOTAL IN =        9861.3594

          OUT:                                     OUT:
          ----                                     ----
             STORAGE =      985357.0000               STORAGE =        9665.3545
       CONSTANT HEAD =           0.0000         CONSTANT HEAD =           0.0000
               WELLS =        5361.2241                 WELLS =         198.4721
       RIVER LEAKAGE =         204.2491         RIVER LEAKAGE =           0.0000
            RECHARGE =           0.0000              RECHARGE =           0.0000

           TOTAL OUT =      990922.5000             TOTAL OUT =        9863.8262

            IN - OUT =         -39.5000              IN - OUT =          -2.4668

 PERCENT DISCREPANCY =          -0.00     PERCENT DISCREPANCY =          -0.03






         TIME SUMMARY AT END OF TIME STEP   26 IN STRESS PERIOD    2
                    SECONDS     MINUTES      HOURS       DAYS        YEARS
                    -----------------------------------------------------------
   TIME STEP LENGTH  86400.      1440.0      24.000      1.0000     2.73785E-03
 STRESS PERIOD TIME 2.24640E+06  37440.      624.00      26.000     7.11841E-02
         TOTAL TIME 2.33280E+06  38880.      648.00      27.000     7.39220E-02
1

 SOLVING FOR HEAD 

    ------------------------------------------------
       NWT REQUIRED            3 OUTER ITERATIONS 
       AND A TOTAL OF          3 INNER ITERATIONS.
    ------------------------------------------------

 OUTPUT CONTROL FOR STRESS PERIOD    2   TIME STEP   27
    SAVE HEAD FOR ALL LAYERS
    SAVE DRAWDOWN FOR ALL LAYERS
    SAVE BUDGET
    PRINT HEAD FOR ALL LAYERS
    PRINT BUDGET
1
              HEAD IN LAYER   1 AT END OF TIME STEP  27 IN STRESS PERIOD    2
  ---------------------------------------------------------------------------

            1           2           3           4           5           6           7           8           9          10
           11          12          13          14          15          16          17          18          19          20
 ........................................................................................................................
   1    0.000       0.000       0.000       0.000       0.000       7.294       7.282       7.308       7.330       7.343    
        7.348       7.355       7.519       8.344       7.514       7.347       7.354       7.366       0.000       0.000    
   2    0.000       0.000       0.000       0.000       7.316       7.304       7.255       7.314       7.335       7.347    
        7.351       7.355       7.486       8.351       7.476       7.328       7.348       7.365       0.000       0.000    
   3    0.000       0.000       0.000       7.337       7.345       7.455       7.493       7.478       7.453       7.456    
        7.455       7.440       7.457       8.358       7.424       7.273       7.340       7.367       0.000       0.000    
   4    0.000       0.000       7.373       7.410       7.546       8.346       8.335       8.344       8.356       8.353    
        8.349       8.304       7.621       8.364       7.438       7.337       7.360       7.380       0.000       0.000    
   5    0.000       0.000       7.814       8.123       8.361       8.319       7.579       7.493       7.473       7.472    
        7.541       8.341       8.364       8.302       7.434       7.366       7.381       7.398       7.416       0.000    
   6    0.000       8.369       8.368       8.353       7.993       7.495       7.386       7.379       7.376       7.370    
        7.373       7.460       7.475       7.456       7.377       7.379       7.391       7.403       7.417       0.000    
   7    0.000       7.482       7.489       7.483       7.429       7.392       7.388       7.388       7.382       7.371    
        7.361       7.368       7.375       7.378       7.379       7.383       7.387       7.395       0.000       0.000    
   8    0.000       7.384       7.397       7.402       7.403       7.405       7.406       7.401       7.389       7.369    
        7.345       7.360       7.372       7.378       7.379       7.375       7.372       7.379       0.000       0.000    
   9    0.000       0.000       7.414       7.417       7.419       7.420       7.418       7.409       7.391       7.358    
        7.288       7.348       7.371       7.378       7.373       7.357       7.336       7.358       7.376       7.388    
  10    0.000       0.000       7.426       7.428       7.429       7.428       7.424       7.414       7.395       7.368    
        7.339       7.357       7.373       7.377       7.365       7.331       7.252       7.333       7.370       7.386    

 HEAD WILL BE SAVED ON UNIT   51 AT END OF TIME STEP   27, STRESS PERIOD    2

 DRAWDOWN WILL BE SAVED ON UNIT   52 AT END OF TIME STEP   27, STRESS PERIOD    2
1
  VOLUMETRIC BUDGET FOR ENTIRE MODEL AT END OF TIME STEP   27, STRESS PERIOD   2
  ------------------------------------------------------------------------------

     CUMULATIVE VOLUMES      L**3       RATES FOR THIS TIME STEP      L**3/T
     ------------------                 ------------------------

           IN:                                      IN:
           ---                                      ---
             STORAGE =           0.0000               STORAGE =           0.0000
       CONSTANT HEAD =           0.0000         CONSTANT HEAD =           0.0000
               WELLS =           0.0000                 WELLS =           0.0000
       RIVER LEAKAGE =      984910.4375         RIVER LEAKAGE =        9108.2246
            RECHARGE =       15645.2783              RECHARGE =         564.4509

            TOTAL IN =     1000555.6875              TOTAL IN =        9672.6758

          OUT:                                     OUT:
          ----                                     ----
             STORAGE =      994833.6250               STORAGE =        9476.6182
       CONSTANT HEAD =           0.0000         CONSTANT HEAD =           0.0000
               WELLS =        5559.6963                 WELLS =         198.4721
       RIVER LEAKAGE =         204.2491         RIVER LEAKAGE =           0.0000
            RECHARGE =           0.0000              RECHARGE =           0.0000

           TOTAL OUT =     1000597.5625             TOTAL OUT =        9675.0898

            IN - OUT =         -41.8750              IN - OUT =          -2.4141

 PERCENT DISCREPANCY =          -0.00     PERCENT DISCREPANCY =          -0.02






         TIME SUMMARY AT END OF TIME STEP   27 IN STRESS PERIOD    2
                    SECONDS     MINUTES      HOURS       DAYS        YEARS
                    -----------------------------------------------------------
   TIME STEP LENGTH  86400.      1440.0      24.000      1.0000     2.73785E-03
 STRESS PERIOD TIME 2.33280E+06  38880.      648.00      27.000     7.39220E-02
         TOTAL TIME 2.41920E+06  40320.      672.00      28.000     7.66598E-02
1

 SOLVING FOR HEAD 

    ------------------------------------------------
       NWT REQUIRED            3 OUTER ITERATIONS 
       AND A TOTAL OF          3 INNER ITERATIONS.
    ------------------------------------------------

 OUTPUT CONTROL FOR STRESS PERIOD    2   TIME STEP   28
    SAVE HEAD FOR ALL LAYERS
    SAVE DRAWDOWN FOR ALL LAYERS
    SAVE BUDGET
    PRINT HEAD FOR ALL LAYERS
    PRINT BUDGET
1
              HEAD IN LAYER   1 AT END OF TIME STEP  28 IN STRESS PERIOD    2
  ---------------------------------------------------------------------------

            1           2           3           4           5           6           7           8           9          10
           11          12          13          14          15          16          17          18          19          20
 ........................................................................................................................
   1    0.000       0.000       0.000       0.000       0.000       7.294       7.282       7.308       7.330       7.343    
        7.348       7.356       7.526       8.345       7.520       7.348       7.354       7.366       0.000       0.000    
   2    0.000       0.000       0.000       0.000       7.317       7.305       7.256       7.315       7.336       7.348    
        7.352       7.357       7.492       8.351       7.481       7.329       7.348       7.365       0.000       0.000    
   3    0.000       0.000       0.000       7.337       7.347       7.460       7.500       7.484       7.458       7.461    
        7.460       7.445       7.462       8.358       7.428       7.273       7.340       7.367       0.000       0.000    
   4    0.000       0.000       7.376       7.414       7.554       8.346       8.336       8.344       8.356       8.353    
        8.350       8.307       7.631       8.365       7.442       7.337       7.360       7.380       0.000       0.000    
   5    0.000       0.000       7.826       8.134       8.362       8.321       7.588       7.499       7.478       7.477    
        7.548       8.342       8.364       8.305       7.438       7.366       7.381       7.398       7.416       0.000    
   6    0.000       8.370       8.368       8.354       8.005       7.501       7.388       7.379       7.376       7.371    
        7.374       7.465       7.479       7.460       7.378       7.379       7.391       7.403       7.417       0.000    
   7    0.000       7.487       7.494       7.488       7.433       7.393       7.389       7.388       7.382       7.371    
        7.361       7.369       7.375       7.379       7.379       7.383       7.387       7.395       0.000       0.000    
   8    0.000       7.385       7.398       7.403       7.403       7.405       7.406       7.401       7.389       7.369    
        7.345       7.360       7.372       7.379       7.379       7.375       7.372       7.379       0.000       0.000    
   9    0.000       0.000       7.414       7.417       7.419       7.420       7.418       7.409       7.391       7.358    
        7.288       7.348       7.371       7.378       7.373       7.357       7.336       7.358       7.376       7.388    
  10    0.000       0.000       7.426       7.428       7.429       7.428       7.424       7.414       7.395       7.368    
        7.339       7.357       7.373       7.377       7.365       7.331       7.252       7.333       7.370       7.386    

 HEAD WILL BE SAVED ON UNIT   51 AT END OF TIME STEP   28, STRESS PERIOD    2

 DRAWDOWN WILL BE SAVED ON UNIT   52 AT END OF TIME STEP   28, STRESS PERIOD    2
1
  VOLUMETRIC BUDGET FOR ENTIRE MODEL AT END OF TIME STEP   28, STRESS PERIOD   2
  ------------------------------------------------------------------------------

     CUMULATIVE VOLUMES      L**3       RATES FOR THIS TIME STEP      L**3/T
     ------------------                 ------------------------

           IN:                                      IN:
           ---                                      ---
             STORAGE =           0.0000               STORAGE =           0.0000
       CONSTANT HEAD =           0.0000         CONSTANT HEAD =           0.0000
               WELLS =           0.0000                 WELLS =           0.0000
       RIVER LEAKAGE =      993847.5625         RIVER LEAKAGE =        8937.1074
            RECHARGE =       16209.7295              RECHARGE =         564.4509

            TOTAL IN =     1010057.3125              TOTAL IN =        9501.5586

          OUT:                                     OUT:
          ----                                     ----
             STORAGE =     1004139.0625               STORAGE =        9305.4541
       CONSTANT HEAD =           0.0000         CONSTANT HEAD =           0.0000
               WELLS =        5758.1685                 WELLS =         198.4721
       RIVER LEAKAGE =         204.2491         RIVER LEAKAGE =           0.0000
            RECHARGE =           0.0000              RECHARGE =           0.0000

           TOTAL OUT =     1010101.5000             TOTAL OUT =        9503.9258

            IN - OUT =         -44.1875              IN - OUT =          -2.3672

 PERCENT DISCREPANCY =          -0.00     PERCENT DISCREPANCY =          -0.02






         TIME SUMMARY AT END OF TIME STEP   28 IN STRESS PERIOD    2
                    SECONDS     MINUTES      HOURS       DAYS        YEARS
                    -----------------------------------------------------------
   TIME STEP LENGTH  86400.      1440.0      24.000      1.0000     2.73785E-03
 STRESS PERIOD TIME 2.41920E+06  40320.      672.00      28.000     7.66598E-02
         TOTAL TIME 2.50560E+06  41760.      696.00      29.000     7.93977E-02
1

 SOLVING FOR HEAD 

    ------------------------------------------------
       NWT REQUIRED            3 OUTER ITERATIONS 
       AND A TOTAL OF          3 INNER ITERATIONS.
    ------------------------------------------------

 OUTPUT CONTROL FOR STRESS PERIOD    2   TIME STEP   29
    SAVE HEAD FOR ALL LAYERS
    SAVE DRAWDOWN FOR ALL LAYERS
    SAVE BUDGET
    PRINT HEAD FOR ALL LAYERS
    PRINT BUDGET
1
              HEAD IN LAYER   1 AT END OF TIME STEP  29 IN STRESS PERIOD    2
  ---------------------------------------------------------------------------

            1           2           3           4           5           6           7           8           9          10
           11          12          13          14          15          16          17          18          19          20
 ........................................................................................................................
   1    0.000       0.000       0.000       0.000       0.000       7.294       7.282       7.309       7.330       7.343    
        7.348       7.356       7.532       8.345       7.527       7.349       7.354       7.366       0.000       0.000    
   2    0.000       0.000       0.000       0.000       7.317       7.306       7.257       7.316       7.337       7.349    
        7.353       7.358       7.497       8.351       7.487       7.330       7.348       7.365       0.000       0.000    
   3    0.000       0.000       0.000       7.338       7.349       7.465       7.506       7.490       7.463       7.465    
        7.464       7.450       7.468       8.358       7.432       7.274       7.340       7.367       0.000       0.000    
   4    0.000       0.000       7.379       7.419       7.561       8.347       8.336       8.345       8.356       8.354    
        8.350       8.310       7.641       8.365       7.446       7.338       7.360       7.380       0.000       0.000    
   5    0.000       0.000       7.838       8.143       8.362       8.323       7.596       7.505       7.482       7.482    
        7.555       8.343       8.364       8.307       7.442       7.366       7.381       7.398       7.416       0.000    
   6    0.000       8.370       8.369       8.355       8.016       7.507       7.390       7.380       7.377       7.372    
        7.376       7.469       7.484       7.464       7.379       7.379       7.391       7.403       7.417       0.000    
   7    0.000       7.491       7.499       7.492       7.436       7.394       7.389       7.388       7.382       7.371    
        7.361       7.369       7.376       7.379       7.379       7.383       7.388       7.395       0.000       0.000    
   8    0.000       7.386       7.399       7.404       7.404       7.405       7.406       7.401       7.389       7.369    
        7.345       7.360       7.372       7.379       7.379       7.375       7.372       7.379       0.000       0.000    
   9    0.000       0.000       7.414       7.417       7.419       7.420       7.418       7.409       7.391       7.358    
        7.288       7.348       7.371       7.378       7.373       7.357       7.336       7.358       7.376       7.388    
  10    0.000       0.000       7.426       7.428       7.429       7.428       7.424       7.414       7.395       7.368    
        7.339       7.357       7.373       7.377       7.365       7.331       7.252       7.333       7.370       7.386    

 HEAD WILL BE SAVED ON UNIT   51 AT END OF TIME STEP   29, STRESS PERIOD    2

 DRAWDOWN WILL BE SAVED ON UNIT   52 AT END OF TIME STEP   29, STRESS PERIOD    2
1
  VOLUMETRIC BUDGET FOR ENTIRE MODEL AT END OF TIME STEP   29, STRESS PERIOD   2
  ------------------------------------------------------------------------------

     CUMULATIVE VOLUMES      L**3       RATES FOR THIS TIME STEP      L**3/T
     ------------------                 ------------------------

           IN:                                      IN:
           ---                                      ---
             STORAGE =           0.0000               STORAGE =           0.0000
       CONSTANT HEAD =           0.0000         CONSTANT HEAD =           0.0000
               WELLS =           0.0000                 WELLS =           0.0000
       RIVER LEAKAGE =     1002628.3125         RIVER LEAKAGE =        8780.7471
            RECHARGE =       16774.1797              RECHARGE =         564.4509

            TOTAL IN =     1019402.5000              TOTAL IN =        9345.1982

          OUT:                                     OUT:
          ----                                     ----
             STORAGE =     1013288.1250               STORAGE =        9149.0518
       CONSTANT HEAD =           0.0000         CONSTANT HEAD =           0.0000
               WELLS =        5956.6406                 WELLS =         198.4721
       RIVER LEAKAGE =         204.2491         RIVER LEAKAGE =           0.0000
            RECHARGE =           0.0000              RECHARGE =           0.0000

           TOTAL OUT =     1019449.0000             TOTAL OUT =        9347.5234

            IN - OUT =         -46.5000              IN - OUT =          -2.3252

 PERCENT DISCREPANCY =          -0.00     PERCENT DISCREPANCY =          -0.02






         TIME SUMMARY AT END OF TIME STEP   29 IN STRESS PERIOD    2
                    SECONDS     MINUTES      HOURS       DAYS        YEARS
                    -----------------------------------------------------------
   TIME STEP LENGTH  86400.      1440.0      24.000      1.0000     2.73785E-03
 STRESS PERIOD TIME 2.50560E+06  41760.      696.00      29.000     7.93977E-02
         TOTAL TIME 2.59200E+06  43200.      720.00      30.000     8.21355E-02
1

 SOLVING FOR HEAD 

    ------------------------------------------------
       NWT REQUIRED            3 OUTER ITERATIONS 
       AND A TOTAL OF          3 INNER ITERATIONS.
    ------------------------------------------------

 OUTPUT CONTROL FOR STRESS PERIOD    2   TIME STEP   30
    SAVE HEAD FOR ALL LAYERS
    SAVE DRAWDOWN FOR ALL LAYERS
    SAVE BUDGET
    PRINT HEAD FOR ALL LAYERS
    PRINT BUDGET
1
              HEAD IN LAYER   1 AT END OF TIME STEP  30 IN STRESS PERIOD    2
  ---------------------------------------------------------------------------

            1           2           3           4           5           6           7           8           9          10
           11          12          13          14          15          16          17          18          19          20
 ........................................................................................................................
   1    0.000       0.000       0.000       0.000       0.000       7.295       7.282       7.309       7.330       7.343    
        7.348       7.357       7.538       8.345       7.533       7.350       7.355       7.366       0.000       0.000    
   2    0.000       0.000       0.000       0.000       7.317       7.307       7.258       7.317       7.338       7.349    
        7.354       7.359       7.503       8.352       7.492       7.330       7.348       7.365       0.000       0.000    
   3    0.000       0.000       0.000       7.339       7.351       7.470       7.512       7.495       7.467       7.470    
        7.469       7.454       7.473       8.358       7.436       7.274       7.340       7.367       0.000       0.000    
   4    0.000       0.000       7.382       7.423       7.568       8.347       8.337       8.345       8.356       8.354    
        8.351       8.312       7.651       8.365       7.450       7.338       7.360       7.380       0.000       0.000    
   5    0.000       0.000       7.850       8.153       8.363       8.325       7.604       7.510       7.487       7.487    
        7.562       8.343       8.364       8.310       7.445       7.367       7.381       7.398       7.416       0.000    
   6    0.000       8.370       8.369       8.355       8.026       7.514       7.392       7.381       7.378       7.373    
        7.377       7.473       7.488       7.468       7.380       7.379       7.391       7.404       7.417       0.000    
   7    0.000       7.496       7.503       7.496       7.440       7.395       7.389       7.388       7.382       7.371    
        7.361       7.370       7.377       7.380       7.379       7.383       7.388       7.395       0.000       0.000    
   8    0.000       7.386       7.400       7.404       7.404       7.405       7.406       7.401       7.389       7.369    
        7.345       7.360       7.372       7.379       7.379       7.375       7.372       7.379       0.000       0.000    
   9    0.000       0.000       7.414       7.417       7.419       7.420       7.418       7.409       7.391       7.358    
        7.288       7.348       7.371       7.378       7.373       7.357       7.336       7.358       7.376       7.389    
  10    0.000       0.000       7.426       7.428       7.429       7.429       7.424       7.414       7.395       7.368    
        7.339       7.357       7.373       7.377       7.365       7.331       7.252       7.333       7.370       7.386    

 HEAD WILL BE SAVED ON UNIT   51 AT END OF TIME STEP   30, STRESS PERIOD    2

 DRAWDOWN WILL BE SAVED ON UNIT   52 AT END OF TIME STEP   30, STRESS PERIOD    2
1
  VOLUMETRIC BUDGET FOR ENTIRE MODEL AT END OF TIME STEP   30, STRESS PERIOD   2
  ------------------------------------------------------------------------------

     CUMULATIVE VOLUMES      L**3       RATES FOR THIS TIME STEP      L**3/T
     ------------------                 ------------------------

           IN:                                      IN:
           ---                                      ---
             STORAGE =           0.0000               STORAGE =           0.0000
       CONSTANT HEAD =           0.0000         CONSTANT HEAD =           0.0000
               WELLS =           0.0000                 WELLS =           0.0000
       RIVER LEAKAGE =     1011265.2500         RIVER LEAKAGE =        8636.9072
            RECHARGE =       17338.6309              RECHARGE =         564.4509

            TOTAL IN =     1028603.8750              TOTAL IN =        9201.3584

          OUT:                                     OUT:
          ----                                     ----
             STORAGE =     1022293.3125               STORAGE =        9005.1719
       CONSTANT HEAD =           0.0000         CONSTANT HEAD =           0.0000
               WELLS =        6155.1128                 WELLS =         198.4721
       RIVER LEAKAGE =         204.2491         RIVER LEAKAGE =           0.0000
            RECHARGE =           0.0000              RECHARGE =           0.0000

           TOTAL OUT =     1028652.6875             TOTAL OUT =        9203.6436

            IN - OUT =         -48.8125              IN - OUT =          -2.2852

 PERCENT DISCREPANCY =          -0.00     PERCENT DISCREPANCY =          -0.02






         TIME SUMMARY AT END OF TIME STEP   30 IN STRESS PERIOD    2
                    SECONDS     MINUTES      HOURS       DAYS        YEARS
                    -----------------------------------------------------------
   TIME STEP LENGTH  86400.      1440.0      24.000      1.0000     2.73785E-03
 STRESS PERIOD TIME 2.59200E+06  43200.      720.00      30.000     8.21355E-02
         TOTAL TIME 2.67840E+06  44640.      744.00      31.000     8.48734E-02
1

 SOLVING FOR HEAD 

    ------------------------------------------------
       NWT REQUIRED            3 OUTER ITERATIONS 
       AND A TOTAL OF          3 INNER ITERATIONS.
    ------------------------------------------------

 OUTPUT CONTROL FOR STRESS PERIOD    2   TIME STEP   31
    SAVE HEAD FOR ALL LAYERS
    SAVE DRAWDOWN FOR ALL LAYERS
    SAVE BUDGET
    PRINT HEAD FOR ALL LAYERS
    PRINT BUDGET
1
              HEAD IN LAYER   1 AT END OF TIME STEP  31 IN STRESS PERIOD    2
  ---------------------------------------------------------------------------

            1           2           3           4           5           6           7           8           9          10
           11          12          13          14          15          16          17          18          19          20
 ........................................................................................................................
   1    0.000       0.000       0.000       0.000       0.000       7.295       7.283       7.309       7.331       7.343    
        7.348       7.358       7.545       8.346       7.539       7.351       7.355       7.366       0.000       0.000    
   2    0.000       0.000       0.000       0.000       7.317       7.308       7.260       7.318       7.338       7.350    
        7.354       7.361       7.508       8.352       7.498       7.331       7.348       7.365       0.000       0.000    
   3    0.000       0.000       0.000       7.339       7.352       7.475       7.519       7.501       7.472       7.474    
        7.473       7.459       7.479       8.359       7.441       7.275       7.340       7.367       0.000       0.000    
   4    0.000       0.000       7.385       7.427       7.575       8.348       8.337       8.345       8.356       8.354    
        8.351       8.314       7.660       8.365       7.454       7.339       7.360       7.380       0.000       0.000    
   5    0.000       0.000       7.861       8.161       8.363       8.327       7.612       7.516       7.492       7.491    
        7.569       8.344       8.365       8.311       7.449       7.367       7.381       7.398       7.416       0.000    
   6    0.000       8.370       8.369       8.356       8.036       7.520       7.394       7.382       7.378       7.373    
        7.379       7.477       7.493       7.473       7.381       7.379       7.391       7.404       7.417       0.000    
   7    0.000       7.501       7.508       7.501       7.443       7.396       7.389       7.388       7.382       7.371    
        7.362       7.370       7.377       7.380       7.379       7.383       7.388       7.395       0.000       0.000    
   8    0.000       7.387       7.400       7.405       7.405       7.405       7.406       7.401       7.389       7.369    
        7.345       7.360       7.372       7.379       7.379       7.375       7.372       7.379       0.000       0.000    
   9    0.000       0.000       7.414       7.417       7.419       7.421       7.418       7.409       7.391       7.358    
        7.288       7.348       7.371       7.378       7.373       7.357       7.336       7.358       7.376       7.389    
  10    0.000       0.000       7.426       7.428       7.429       7.429       7.424       7.414       7.395       7.368    
        7.339       7.357       7.373       7.377       7.365       7.331       7.252       7.333       7.370       7.386    

 HEAD WILL BE SAVED ON UNIT   51 AT END OF TIME STEP   31, STRESS PERIOD    2

 DRAWDOWN WILL BE SAVED ON UNIT   52 AT END OF TIME STEP   31, STRESS PERIOD    2
1
  VOLUMETRIC BUDGET FOR ENTIRE MODEL AT END OF TIME STEP   31, STRESS PERIOD   2
  ------------------------------------------------------------------------------

     CUMULATIVE VOLUMES      L**3       RATES FOR THIS TIME STEP      L**3/T
     ------------------                 ------------------------

           IN:                                      IN:
           ---                                      ---
             STORAGE =           0.0000               STORAGE =           0.0000
       CONSTANT HEAD =           0.0000         CONSTANT HEAD =           0.0000
               WELLS =           0.0000                 WELLS =           0.0000
       RIVER LEAKAGE =     1019769.0000         RIVER LEAKAGE =        8503.7725
            RECHARGE =       17903.0820              RECHARGE =         564.4509

            TOTAL IN =     1037672.0625              TOTAL IN =        9068.2236

          OUT:                                     OUT:
          ----                                     ----
             STORAGE =     1031165.3125               STORAGE =        8872.0010
       CONSTANT HEAD =           0.0000         CONSTANT HEAD =           0.0000
               WELLS =        6353.5850                 WELLS =         198.4721
       RIVER LEAKAGE =         204.2491         RIVER LEAKAGE =           0.0000
            RECHARGE =           0.0000              RECHARGE =           0.0000

           TOTAL OUT =     1037723.1250             TOTAL OUT =        9070.4727

            IN - OUT =         -51.0625              IN - OUT =          -2.2490

 PERCENT DISCREPANCY =          -0.00     PERCENT DISCREPANCY =          -0.02






         TIME SUMMARY AT END OF TIME STEP   31 IN STRESS PERIOD    2
                    SECONDS     MINUTES      HOURS       DAYS        YEARS
                    -----------------------------------------------------------
   TIME STEP LENGTH  86400.      1440.0      24.000      1.0000     2.73785E-03
 STRESS PERIOD TIME 2.67840E+06  44640.      744.00      31.000     8.48734E-02
         TOTAL TIME 2.76480E+06  46080.      768.00      32.000     8.76112E-02
1

 SOLVING FOR HEAD 

    ------------------------------------------------
       NWT REQUIRED            3 OUTER ITERATIONS 
       AND A TOTAL OF          3 INNER ITERATIONS.
    ------------------------------------------------

 OUTPUT CONTROL FOR STRESS PERIOD    2   TIME STEP   32
    SAVE HEAD FOR ALL LAYERS
    SAVE DRAWDOWN FOR ALL LAYERS
    SAVE BUDGET
    PRINT HEAD FOR ALL LAYERS
    PRINT BUDGET
1
              HEAD IN LAYER   1 AT END OF TIME STEP  32 IN STRESS PERIOD    2
  ---------------------------------------------------------------------------

            1           2           3           4           5           6           7           8           9          10
           11          12          13          14          15          16          17          18          19          20
 ........................................................................................................................
   1    0.000       0.000       0.000       0.000       0.000       7.295       7.283       7.309       7.331       7.344    
        7.349       7.359       7.551       8.346       7.545       7.352       7.355       7.366       0.000       0.000    
   2    0.000       0.000       0.000       0.000       7.318       7.308       7.261       7.319       7.339       7.351    
        7.355       7.362       7.514       8.352       7.503       7.332       7.348       7.365       0.000       0.000    
   3    0.000       0.000       0.000       7.340       7.354       7.480       7.525       7.507       7.477       7.479    
        7.478       7.464       7.484       8.359       7.445       7.275       7.340       7.367       0.000       0.000    
   4    0.000       0.000       7.388       7.432       7.582       8.348       8.338       8.346       8.357       8.354    
        8.351       8.317       7.670       8.365       7.458       7.339       7.360       7.380       0.000       0.000    
   5    0.000       0.000       7.873       8.170       8.364       8.328       7.620       7.521       7.496       7.496    
        7.576       8.345       8.365       8.313       7.452       7.368       7.381       7.398       7.416       0.000    
   6    0.000       8.370       8.369       8.357       8.046       7.526       7.396       7.383       7.379       7.374    
        7.380       7.481       7.497       7.477       7.382       7.379       7.391       7.404       7.417       0.000    
   7    0.000       7.505       7.512       7.505       7.447       7.397       7.390       7.388       7.382       7.371    
        7.362       7.371       7.378       7.381       7.379       7.383       7.388       7.395       0.000       0.000    
   8    0.000       7.388       7.401       7.406       7.405       7.405       7.406       7.401       7.389       7.369    
        7.345       7.360       7.372       7.379       7.379       7.375       7.372       7.379       0.000       0.000    
   9    0.000       0.000       7.415       7.417       7.420       7.421       7.418       7.409       7.391       7.358    
        7.288       7.348       7.371       7.378       7.373       7.357       7.336       7.358       7.376       7.389    
  10    0.000       0.000       7.426       7.428       7.429       7.429       7.424       7.414       7.395       7.368    
        7.339       7.357       7.373       7.377       7.365       7.331       7.252       7.333       7.370       7.386    

 HEAD WILL BE SAVED ON UNIT   51 AT END OF TIME STEP   32, STRESS PERIOD    2

 DRAWDOWN WILL BE SAVED ON UNIT   52 AT END OF TIME STEP   32, STRESS PERIOD    2
1
  VOLUMETRIC BUDGET FOR ENTIRE MODEL AT END OF TIME STEP   32, STRESS PERIOD   2
  ------------------------------------------------------------------------------

     CUMULATIVE VOLUMES      L**3       RATES FOR THIS TIME STEP      L**3/T
     ------------------                 ------------------------

           IN:                                      IN:
           ---                                      ---
             STORAGE =           0.0000               STORAGE =           0.0000
       CONSTANT HEAD =           0.0000         CONSTANT HEAD =           0.0000
               WELLS =           0.0000                 WELLS =           0.0000
       RIVER LEAKAGE =     1028148.8125         RIVER LEAKAGE =        8379.8379
            RECHARGE =       18467.5332              RECHARGE =         564.4509

            TOTAL IN =     1046616.3750              TOTAL IN =        8944.2891

          OUT:                                     OUT:
          ----                                     ----
             STORAGE =     1039913.3750               STORAGE =        8748.0342
       CONSTANT HEAD =           0.0000         CONSTANT HEAD =           0.0000
               WELLS =        6552.0571                 WELLS =         198.4721
       RIVER LEAKAGE =         204.2491         RIVER LEAKAGE =           0.0000
            RECHARGE =           0.0000              RECHARGE =           0.0000

           TOTAL OUT =     1046669.6875             TOTAL OUT =        8946.5059

            IN - OUT =         -53.3125              IN - OUT =          -2.2168

 PERCENT DISCREPANCY =          -0.01     PERCENT DISCREPANCY =          -0.02






         TIME SUMMARY AT END OF TIME STEP   32 IN STRESS PERIOD    2
                    SECONDS     MINUTES      HOURS       DAYS        YEARS
                    -----------------------------------------------------------
   TIME STEP LENGTH  86400.      1440.0      24.000      1.0000     2.73785E-03
 STRESS PERIOD TIME 2.76480E+06  46080.      768.00      32.000     8.76112E-02
         TOTAL TIME 2.85120E+06  47520.      792.00      33.000     9.03491E-02
1

 SOLVING FOR HEAD 

    ------------------------------------------------
       NWT REQUIRED            3 OUTER ITERATIONS 
       AND A TOTAL OF          3 INNER ITERATIONS.
    ------------------------------------------------

 OUTPUT CONTROL FOR STRESS PERIOD    2   TIME STEP   33
    SAVE HEAD FOR ALL LAYERS
    SAVE DRAWDOWN FOR ALL LAYERS
    SAVE BUDGET
    PRINT HEAD FOR ALL LAYERS
    PRINT BUDGET
1
              HEAD IN LAYER   1 AT END OF TIME STEP  33 IN STRESS PERIOD    2
  ---------------------------------------------------------------------------

            1           2           3           4           5           6           7           8           9          10
           11          12          13          14          15          16          17          18          19          20
 ........................................................................................................................
   1    0.000       0.000       0.000       0.000       0.000       7.295       7.283       7.309       7.331       7.344    
        7.349       7.360       7.557       8.346       7.552       7.353       7.355       7.366       0.000       0.000    
   2    0.000       0.000       0.000       0.000       7.318       7.309       7.262       7.320       7.340       7.352    
        7.356       7.363       7.519       8.352       7.508       7.333       7.348       7.365       0.000       0.000    
   3    0.000       0.000       0.000       7.341       7.356       7.485       7.531       7.512       7.481       7.483    
        7.482       7.468       7.490       8.359       7.449       7.276       7.340       7.367       0.000       0.000    
   4    0.000       0.000       7.392       7.436       7.589       8.348       8.338       8.346       8.357       8.355    
        8.352       8.318       7.679       8.366       7.462       7.340       7.361       7.380       0.000       0.000    
   5    0.000       0.000       7.883       8.177       8.364       8.329       7.628       7.526       7.501       7.501    
        7.583       8.345       8.365       8.315       7.456       7.368       7.381       7.398       7.416       0.000    
   6    0.000       8.370       8.369       8.357       8.055       7.532       7.398       7.384       7.380       7.375    
        7.382       7.485       7.501       7.481       7.383       7.379       7.391       7.404       7.417       0.000    
   7    0.000       7.510       7.517       7.509       7.450       7.398       7.390       7.388       7.382       7.371    
        7.362       7.372       7.379       7.382       7.379       7.383       7.388       7.395       0.000       0.000    
   8    0.000       7.389       7.402       7.407       7.405       7.406       7.406       7.401       7.389       7.369    
        7.345       7.360       7.373       7.379       7.379       7.375       7.372       7.379       0.000       0.000    
   9    0.000       0.000       7.415       7.417       7.420       7.421       7.418       7.409       7.391       7.358    
        7.288       7.348       7.371       7.378       7.373       7.357       7.336       7.358       7.376       7.389    
  10    0.000       0.000       7.426       7.428       7.429       7.429       7.424       7.414       7.395       7.368    
        7.339       7.357       7.373       7.377       7.365       7.331       7.252       7.333       7.370       7.386    

 HEAD WILL BE SAVED ON UNIT   51 AT END OF TIME STEP   33, STRESS PERIOD    2

 DRAWDOWN WILL BE SAVED ON UNIT   52 AT END OF TIME STEP   33, STRESS PERIOD    2
1
  VOLUMETRIC BUDGET FOR ENTIRE MODEL AT END OF TIME STEP   33, STRESS PERIOD   2
  ------------------------------------------------------------------------------

     CUMULATIVE VOLUMES      L**3       RATES FOR THIS TIME STEP      L**3/T
     ------------------                 ------------------------

           IN:                                      IN:
           ---                                      ---
             STORAGE =           0.0000               STORAGE =           0.0000
       CONSTANT HEAD =           0.0000         CONSTANT HEAD =           0.0000
               WELLS =           0.0000                 WELLS =           0.0000
       RIVER LEAKAGE =     1036412.6875         RIVER LEAKAGE =        8263.9004
            RECHARGE =       19031.9844              RECHARGE =         564.4509

            TOTAL IN =     1055444.6250              TOTAL IN =        8828.3516

          OUT:                                     OUT:
          ----                                     ----
             STORAGE =     1048545.4375               STORAGE =        8632.0654
       CONSTANT HEAD =           0.0000         CONSTANT HEAD =           0.0000
               WELLS =        6750.5293                 WELLS =         198.4721
       RIVER LEAKAGE =         204.2491         RIVER LEAKAGE =           0.0000
            RECHARGE =           0.0000              RECHARGE =           0.0000

           TOTAL OUT =     1055500.2500             TOTAL OUT =        8830.5371

            IN - OUT =         -55.6250              IN - OUT =          -2.1855

 PERCENT DISCREPANCY =          -0.01     PERCENT DISCREPANCY =          -0.02






         TIME SUMMARY AT END OF TIME STEP   33 IN STRESS PERIOD    2
                    SECONDS     MINUTES      HOURS       DAYS        YEARS
                    -----------------------------------------------------------
   TIME STEP LENGTH  86400.      1440.0      24.000      1.0000     2.73785E-03
 STRESS PERIOD TIME 2.85120E+06  47520.      792.00      33.000     9.03491E-02
         TOTAL TIME 2.93760E+06  48960.      816.00      34.000     9.30869E-02
1

 SOLVING FOR HEAD 

    ------------------------------------------------
       NWT REQUIRED            3 OUTER ITERATIONS 
       AND A TOTAL OF          3 INNER ITERATIONS.
    ------------------------------------------------

 OUTPUT CONTROL FOR STRESS PERIOD    2   TIME STEP   34
    SAVE HEAD FOR ALL LAYERS
    SAVE DRAWDOWN FOR ALL LAYERS
    SAVE BUDGET
    PRINT HEAD FOR ALL LAYERS
    PRINT BUDGET
1
              HEAD IN LAYER   1 AT END OF TIME STEP  34 IN STRESS PERIOD    2
  ---------------------------------------------------------------------------

            1           2           3           4           5           6           7           8           9          10
           11          12          13          14          15          16          17          18          19          20
 ........................................................................................................................
   1    0.000       0.000       0.000       0.000       0.000       7.295       7.283       7.309       7.331       7.344    
        7.349       7.361       7.563       8.347       7.558       7.354       7.355       7.366       0.000       0.000    
   2    0.000       0.000       0.000       0.000       7.318       7.310       7.264       7.322       7.341       7.353    
        7.357       7.365       7.525       8.352       7.513       7.334       7.348       7.365       0.000       0.000    
   3    0.000       0.000       0.000       7.341       7.358       7.490       7.537       7.518       7.486       7.488    
        7.486       7.473       7.495       8.359       7.453       7.277       7.340       7.367       0.000       0.000    
   4    0.000       0.000       7.395       7.441       7.596       8.349       8.338       8.346       8.357       8.355    
        8.352       8.320       7.689       8.366       7.465       7.341       7.361       7.380       0.000       0.000    
   5    0.000       0.000       7.894       8.184       8.365       8.330       7.635       7.532       7.505       7.506    
        7.589       8.346       8.365       8.316       7.459       7.369       7.381       7.398       7.416       0.000    
   6    0.000       8.370       8.370       8.358       8.063       7.538       7.400       7.385       7.381       7.376    
        7.384       7.489       7.505       7.485       7.384       7.379       7.391       7.404       7.417       0.000    
   7    0.000       7.514       7.521       7.514       7.453       7.399       7.390       7.388       7.382       7.372    
        7.362       7.372       7.380       7.382       7.380       7.383       7.388       7.395       0.000       0.000    
   8    0.000       7.390       7.403       7.407       7.406       7.406       7.406       7.401       7.389       7.369    
        7.345       7.360       7.373       7.379       7.379       7.376       7.372       7.379       0.000       0.000    
   9    0.000       0.000       7.415       7.417       7.420       7.421       7.418       7.409       7.391       7.358    
        7.288       7.348       7.371       7.378       7.373       7.357       7.336       7.358       7.376       7.389    
  10    0.000       0.000       7.426       7.428       7.429       7.429       7.424       7.414       7.395       7.368    
        7.339       7.357       7.373       7.377       7.365       7.331       7.252       7.333       7.370       7.386    

 HEAD WILL BE SAVED ON UNIT   51 AT END OF TIME STEP   34, STRESS PERIOD    2

 DRAWDOWN WILL BE SAVED ON UNIT   52 AT END OF TIME STEP   34, STRESS PERIOD    2
1
  VOLUMETRIC BUDGET FOR ENTIRE MODEL AT END OF TIME STEP   34, STRESS PERIOD   2
  ------------------------------------------------------------------------------

     CUMULATIVE VOLUMES      L**3       RATES FOR THIS TIME STEP      L**3/T
     ------------------                 ------------------------

           IN:                                      IN:
           ---                                      ---
             STORAGE =           0.0000               STORAGE =           0.0000
       CONSTANT HEAD =           0.0000         CONSTANT HEAD =           0.0000
               WELLS =           0.0000                 WELLS =           0.0000
       RIVER LEAKAGE =     1044567.6250         RIVER LEAKAGE =        8154.9346
            RECHARGE =       19596.4355              RECHARGE =         564.4509

            TOTAL IN =     1064164.0000              TOTAL IN =        8719.3857

          OUT:                                     OUT:
          ----                                     ----
             STORAGE =     1057068.5000               STORAGE =        8523.0703
       CONSTANT HEAD =           0.0000         CONSTANT HEAD =           0.0000
               WELLS =        6949.0015                 WELLS =         198.4721
       RIVER LEAKAGE =         204.2491         RIVER LEAKAGE =           0.0000
            RECHARGE =           0.0000              RECHARGE =           0.0000

           TOTAL OUT =     1064221.7500             TOTAL OUT =        8721.5420

            IN - OUT =         -57.7500              IN - OUT =          -2.1562

 PERCENT DISCREPANCY =          -0.01     PERCENT DISCREPANCY =          -0.02






         TIME SUMMARY AT END OF TIME STEP   34 IN STRESS PERIOD    2
                    SECONDS     MINUTES      HOURS       DAYS        YEARS
                    -----------------------------------------------------------
   TIME STEP LENGTH  86400.      1440.0      24.000      1.0000     2.73785E-03
 STRESS PERIOD TIME 2.93760E+06  48960.      816.00      34.000     9.30869E-02
         TOTAL TIME 3.02400E+06  50400.      840.00      35.000     9.58248E-02
1

 SOLVING FOR HEAD 

    ------------------------------------------------
       NWT REQUIRED            3 OUTER ITERATIONS 
       AND A TOTAL OF          3 INNER ITERATIONS.
    ------------------------------------------------

 OUTPUT CONTROL FOR STRESS PERIOD    2   TIME STEP   35
    SAVE HEAD FOR ALL LAYERS
    SAVE DRAWDOWN FOR ALL LAYERS
    SAVE BUDGET
    PRINT HEAD FOR ALL LAYERS
    PRINT BUDGET
1
              HEAD IN LAYER   1 AT END OF TIME STEP  35 IN STRESS PERIOD    2
  ---------------------------------------------------------------------------

            1           2           3           4           5           6           7           8           9          10
           11          12          13          14          15          16          17          18          19          20
 ........................................................................................................................
   1    0.000       0.000       0.000       0.000       0.000       7.295       7.283       7.309       7.331       7.344    
        7.349       7.363       7.569       8.347       7.563       7.355       7.355       7.366       0.000       0.000    
   2    0.000       0.000       0.000       0.000       7.318       7.311       7.265       7.323       7.342       7.353    
        7.358       7.366       7.530       8.353       7.519       7.334       7.348       7.365       0.000       0.000    
   3    0.000       0.000       0.000       7.342       7.360       7.495       7.543       7.523       7.490       7.492    
        7.491       7.477       7.501       8.359       7.457       7.277       7.340       7.367       0.000       0.000    
   4    0.000       0.000       7.398       7.445       7.603       8.349       8.339       8.346       8.357       8.355    
        8.352       8.321       7.698       8.366       7.469       7.341       7.361       7.380       0.000       0.000    
   5    0.000       0.000       7.904       8.191       8.365       8.331       7.643       7.537       7.510       7.510    
        7.596       8.346       8.365       8.317       7.463       7.369       7.381       7.398       7.416       0.000    
   6    0.000       8.371       8.370       8.358       8.072       7.543       7.402       7.386       7.382       7.377    
        7.385       7.493       7.509       7.488       7.385       7.380       7.391       7.404       7.417       0.000    
   7    0.000       7.518       7.525       7.518       7.457       7.401       7.390       7.389       7.382       7.372    
        7.362       7.373       7.380       7.383       7.380       7.383       7.388       7.395       0.000       0.000    
   8    0.000       7.391       7.404       7.408       7.406       7.406       7.406       7.401       7.389       7.369    
        7.345       7.360       7.373       7.379       7.379       7.376       7.372       7.379       0.000       0.000    
   9    0.000       0.000       7.415       7.417       7.420       7.421       7.418       7.409       7.391       7.358    
        7.288       7.348       7.371       7.378       7.373       7.357       7.336       7.358       7.376       7.389    
  10    0.000       0.000       7.426       7.428       7.429       7.429       7.424       7.414       7.395       7.368    
        7.339       7.357       7.373       7.377       7.365       7.331       7.252       7.333       7.370       7.386    

 HEAD WILL BE SAVED ON UNIT   51 AT END OF TIME STEP   35, STRESS PERIOD    2

 DRAWDOWN WILL BE SAVED ON UNIT   52 AT END OF TIME STEP   35, STRESS PERIOD    2
1
  VOLUMETRIC BUDGET FOR ENTIRE MODEL AT END OF TIME STEP   35, STRESS PERIOD   2
  ------------------------------------------------------------------------------

     CUMULATIVE VOLUMES      L**3       RATES FOR THIS TIME STEP      L**3/T
     ------------------                 ------------------------

           IN:                                      IN:
           ---                                      ---
             STORAGE =           0.0000               STORAGE =           0.0000
       CONSTANT HEAD =           0.0000         CONSTANT HEAD =           0.0000
               WELLS =           0.0000                 WELLS =           0.0000
       RIVER LEAKAGE =     1052619.7500         RIVER LEAKAGE =        8052.1099
            RECHARGE =       20160.8867              RECHARGE =         564.4509

            TOTAL IN =     1072780.6250              TOTAL IN =        8616.5605

          OUT:                                     OUT:
          ----                                     ----
             STORAGE =     1065488.7500               STORAGE =        8420.2188
       CONSTANT HEAD =           0.0000         CONSTANT HEAD =           0.0000
               WELLS =        7147.4736                 WELLS =         198.4721
       RIVER LEAKAGE =         204.2491         RIVER LEAKAGE =           0.0000
            RECHARGE =           0.0000              RECHARGE =           0.0000

           TOTAL OUT =     1072840.5000             TOTAL OUT =        8618.6904

            IN - OUT =         -59.8750              IN - OUT =          -2.1299

 PERCENT DISCREPANCY =          -0.01     PERCENT DISCREPANCY =          -0.02






         TIME SUMMARY AT END OF TIME STEP   35 IN STRESS PERIOD    2
                    SECONDS     MINUTES      HOURS       DAYS        YEARS
                    -----------------------------------------------------------
   TIME STEP LENGTH  86400.      1440.0      24.000      1.0000     2.73785E-03
 STRESS PERIOD TIME 3.02400E+06  50400.      840.00      35.000     9.58248E-02
         TOTAL TIME 3.11040E+06  51840.      864.00      36.000     9.85626E-02
1

 SOLVING FOR HEAD 

    ------------------------------------------------
       NWT REQUIRED            3 OUTER ITERATIONS 
       AND A TOTAL OF          3 INNER ITERATIONS.
    ------------------------------------------------

 OUTPUT CONTROL FOR STRESS PERIOD    2   TIME STEP   36
    SAVE HEAD FOR ALL LAYERS
    SAVE DRAWDOWN FOR ALL LAYERS
    SAVE BUDGET
    PRINT HEAD FOR ALL LAYERS
    PRINT BUDGET
1
              HEAD IN LAYER   1 AT END OF TIME STEP  36 IN STRESS PERIOD    2
  ---------------------------------------------------------------------------

            1           2           3           4           5           6           7           8           9          10
           11          12          13          14          15          16          17          18          19          20
 ........................................................................................................................
   1    0.000       0.000       0.000       0.000       0.000       7.295       7.283       7.310       7.331       7.344    
        7.349       7.364       7.575       8.347       7.569       7.356       7.355       7.366       0.000       0.000    
   2    0.000       0.000       0.000       0.000       7.319       7.312       7.267       7.324       7.343       7.354    
        7.358       7.368       7.535       8.353       7.524       7.335       7.348       7.365       0.000       0.000    
   3    0.000       0.000       0.000       7.343       7.362       7.499       7.548       7.528       7.495       7.496    
        7.495       7.482       7.506       8.359       7.461       7.278       7.340       7.367       0.000       0.000    
   4    0.000       0.000       7.402       7.450       7.609       8.349       8.339       8.347       8.357       8.355    
        8.352       8.323       7.707       8.366       7.473       7.342       7.361       7.380       0.000       0.000    
   5    0.000       0.000       7.914       8.198       8.365       8.332       7.650       7.542       7.514       7.515    
        7.602       8.346       8.366       8.318       7.466       7.370       7.381       7.398       7.416       0.000    
   6    0.000       8.371       8.370       8.358       8.079       7.549       7.404       7.387       7.383       7.378    
        7.387       7.497       7.513       7.492       7.386       7.380       7.391       7.404       7.417       0.000    
   7    0.000       7.523       7.530       7.522       7.460       7.402       7.391       7.389       7.382       7.372    
        7.363       7.374       7.381       7.384       7.380       7.383       7.388       7.395       0.000       0.000    
   8    0.000       7.392       7.404       7.409       7.407       7.406       7.406       7.401       7.389       7.369    
        7.345       7.360       7.373       7.379       7.380       7.376       7.372       7.379       0.000       0.000    
   9    0.000       0.000       7.415       7.418       7.420       7.421       7.418       7.409       7.391       7.358    
        7.288       7.348       7.371       7.378       7.373       7.357       7.336       7.358       7.376       7.389    
  10    0.000       0.000       7.426       7.428       7.429       7.429       7.424       7.414       7.395       7.368    
        7.339       7.357       7.373       7.377       7.365       7.331       7.252       7.333       7.370       7.386    

 HEAD WILL BE SAVED ON UNIT   51 AT END OF TIME STEP   36, STRESS PERIOD    2

 DRAWDOWN WILL BE SAVED ON UNIT   52 AT END OF TIME STEP   36, STRESS PERIOD    2
1
  VOLUMETRIC BUDGET FOR ENTIRE MODEL AT END OF TIME STEP   36, STRESS PERIOD   2
  ------------------------------------------------------------------------------

     CUMULATIVE VOLUMES      L**3       RATES FOR THIS TIME STEP      L**3/T
     ------------------                 ------------------------

           IN:                                      IN:
           ---                                      ---
             STORAGE =           0.0000               STORAGE =           0.0000
       CONSTANT HEAD =           0.0000         CONSTANT HEAD =           0.0000
               WELLS =           0.0000                 WELLS =           0.0000
       RIVER LEAKAGE =     1060574.5000         RIVER LEAKAGE =        7954.7271
            RECHARGE =       20725.3379              RECHARGE =         564.4509

            TOTAL IN =     1081299.8750              TOTAL IN =        8519.1777

          OUT:                                     OUT:
          ----                                     ----
             STORAGE =     1073811.5000               STORAGE =        8322.8096
       CONSTANT HEAD =           0.0000         CONSTANT HEAD =           0.0000
               WELLS =        7345.9458                 WELLS =         198.4721
       RIVER LEAKAGE =         204.2491         RIVER LEAKAGE =           0.0000
            RECHARGE =           0.0000              RECHARGE =           0.0000

           TOTAL OUT =     1081361.7500             TOTAL OUT =        8521.2812

            IN - OUT =         -61.8750              IN - OUT =          -2.1035

 PERCENT DISCREPANCY =          -0.01     PERCENT DISCREPANCY =          -0.02






         TIME SUMMARY AT END OF TIME STEP   36 IN STRESS PERIOD    2
                    SECONDS     MINUTES      HOURS       DAYS        YEARS
                    -----------------------------------------------------------
   TIME STEP LENGTH  86400.      1440.0      24.000      1.0000     2.73785E-03
 STRESS PERIOD TIME 3.11040E+06  51840.      864.00      36.000     9.85626E-02
         TOTAL TIME 3.19680E+06  53280.      888.00      37.000     0.10130    
1

 SOLVING FOR HEAD 

    ------------------------------------------------
       NWT REQUIRED            3 OUTER ITERATIONS 
       AND A TOTAL OF          3 INNER ITERATIONS.
    ------------------------------------------------

 OUTPUT CONTROL FOR STRESS PERIOD    2   TIME STEP   37
    SAVE HEAD FOR ALL LAYERS
    SAVE DRAWDOWN FOR ALL LAYERS
    SAVE BUDGET
    PRINT HEAD FOR ALL LAYERS
    PRINT BUDGET
1
              HEAD IN LAYER   1 AT END OF TIME STEP  37 IN STRESS PERIOD    2
  ---------------------------------------------------------------------------

            1           2           3           4           5           6           7           8           9          10
           11          12          13          14          15          16          17          18          19          20
 ........................................................................................................................
   1    0.000       0.000       0.000       0.000       0.000       7.295       7.284       7.310       7.331       7.344    
        7.349       7.365       7.581       8.347       7.575       7.357       7.355       7.366       0.000       0.000    
   2    0.000       0.000       0.000       0.000       7.319       7.313       7.268       7.325       7.344       7.355    
        7.359       7.369       7.540       8.353       7.529       7.336       7.349       7.365       0.000       0.000    
   3    0.000       0.000       0.000       7.344       7.364       7.504       7.554       7.534       7.499       7.500    
        7.499       7.486       7.512       8.360       7.465       7.279       7.340       7.367       0.000       0.000    
   4    0.000       0.000       7.405       7.454       7.616       8.350       8.340       8.347       8.357       8.355    
        8.353       8.324       7.716       8.366       7.476       7.342       7.361       7.380       0.000       0.000    
   5    0.000       0.000       7.923       8.204       8.366       8.333       7.657       7.547       7.518       7.519    
        7.608       8.347       8.366       8.319       7.469       7.370       7.381       7.398       7.416       0.000    
   6    0.000       8.371       8.370       8.359       8.087       7.555       7.406       7.388       7.383       7.379    
        7.389       7.501       7.517       7.496       7.387       7.380       7.391       7.404       7.418       0.000    
   7    0.000       7.527       7.534       7.526       7.464       7.403       7.391       7.389       7.383       7.372    
        7.363       7.375       7.382       7.384       7.380       7.383       7.388       7.395       0.000       0.000    
   8    0.000       7.393       7.405       7.410       7.407       7.406       7.406       7.401       7.389       7.369    
        7.345       7.360       7.373       7.379       7.380       7.376       7.372       7.379       0.000       0.000    
   9    0.000       0.000       7.415       7.418       7.420       7.421       7.418       7.409       7.392       7.358    
        7.288       7.348       7.371       7.378       7.373       7.357       7.336       7.359       7.376       7.389    
  10    0.000       0.000       7.426       7.428       7.429       7.429       7.424       7.414       7.395       7.368    
        7.339       7.357       7.373       7.377       7.365       7.331       7.252       7.333       7.370       7.386    

 HEAD WILL BE SAVED ON UNIT   51 AT END OF TIME STEP   37, STRESS PERIOD    2

 DRAWDOWN WILL BE SAVED ON UNIT   52 AT END OF TIME STEP   37, STRESS PERIOD    2
1
  VOLUMETRIC BUDGET FOR ENTIRE MODEL AT END OF TIME STEP   37, STRESS PERIOD   2
  ------------------------------------------------------------------------------

     CUMULATIVE VOLUMES      L**3       RATES FOR THIS TIME STEP      L**3/T
     ------------------                 ------------------------

           IN:                                      IN:
           ---                                      ---
             STORAGE =           0.0000               STORAGE =           0.0000
       CONSTANT HEAD =           0.0000         CONSTANT HEAD =           0.0000
               WELLS =           0.0000                 WELLS =           0.0000
       RIVER LEAKAGE =     1068436.6250         RIVER LEAKAGE =        7862.1826
            RECHARGE =       21289.7891              RECHARGE =         564.4509

            TOTAL IN =     1089726.3750              TOTAL IN =        8426.6338

          OUT:                                     OUT:
          ----                                     ----
             STORAGE =     1082041.7500               STORAGE =        8230.2412
       CONSTANT HEAD =           0.0000         CONSTANT HEAD =           0.0000
               WELLS =        7544.4180                 WELLS =         198.4721
       RIVER LEAKAGE =         204.2491         RIVER LEAKAGE =           0.0000
            RECHARGE =           0.0000              RECHARGE =           0.0000

           TOTAL OUT =     1089790.3750             TOTAL OUT =        8428.7129

            IN - OUT =         -64.0000              IN - OUT =          -2.0791

 PERCENT DISCREPANCY =          -0.01     PERCENT DISCREPANCY =          -0.02






         TIME SUMMARY AT END OF TIME STEP   37 IN STRESS PERIOD    2
                    SECONDS     MINUTES      HOURS       DAYS        YEARS
                    -----------------------------------------------------------
   TIME STEP LENGTH  86400.      1440.0      24.000      1.0000     2.73785E-03
 STRESS PERIOD TIME 3.19680E+06  53280.      888.00      37.000     0.10130    
         TOTAL TIME 3.28320E+06  54720.      912.00      38.000     0.10404    
1

 SOLVING FOR HEAD 

    ------------------------------------------------
       NWT REQUIRED            3 OUTER ITERATIONS 
       AND A TOTAL OF          3 INNER ITERATIONS.
    ------------------------------------------------

 OUTPUT CONTROL FOR STRESS PERIOD    2   TIME STEP   38
    SAVE HEAD FOR ALL LAYERS
    SAVE DRAWDOWN FOR ALL LAYERS
    SAVE BUDGET
    PRINT HEAD FOR ALL LAYERS
    PRINT BUDGET
1
              HEAD IN LAYER   1 AT END OF TIME STEP  38 IN STRESS PERIOD    2
  ---------------------------------------------------------------------------

            1           2           3           4           5           6           7           8           9          10
           11          12          13          14          15          16          17          18          19          20
 ........................................................................................................................
   1    0.000       0.000       0.000       0.000       0.000       7.296       7.284       7.310       7.331       7.344    
        7.350       7.366       7.586       8.348       7.581       7.358       7.355       7.367       0.000       0.000    
   2    0.000       0.000       0.000       0.000       7.319       7.314       7.270       7.327       7.344       7.356    
        7.360       7.371       7.546       8.353       7.534       7.337       7.349       7.365       0.000       0.000    
   3    0.000       0.000       0.000       7.345       7.366       7.508       7.560       7.539       7.503       7.504    
        7.503       7.491       7.517       8.360       7.469       7.279       7.340       7.367       0.000       0.000    
   4    0.000       0.000       7.408       7.459       7.622       8.350       8.340       8.347       8.358       8.355    
        8.353       8.325       7.724       8.367       7.480       7.343       7.361       7.380       0.000       0.000    
   5    0.000       0.000       7.933       8.209       8.366       8.334       7.664       7.552       7.523       7.524    
        7.615       8.347       8.366       8.320       7.473       7.371       7.381       7.398       7.416       0.000    
   6    0.000       8.371       8.370       8.359       8.094       7.561       7.408       7.390       7.384       7.380    
        7.390       7.504       7.521       7.500       7.388       7.380       7.391       7.404       7.418       0.000    
   7    0.000       7.531       7.538       7.530       7.467       7.404       7.391       7.389       7.383       7.372    
        7.363       7.375       7.383       7.385       7.380       7.383       7.388       7.395       0.000       0.000    
   8    0.000       7.394       7.406       7.410       7.408       7.406       7.406       7.401       7.389       7.369    
        7.346       7.360       7.373       7.379       7.380       7.376       7.372       7.379       0.000       0.000    
   9    0.000       0.000       7.415       7.418       7.420       7.421       7.418       7.409       7.392       7.358    
        7.288       7.348       7.371       7.378       7.373       7.357       7.336       7.359       7.376       7.389    
  10    0.000       0.000       7.427       7.428       7.429       7.429       7.424       7.414       7.396       7.368    
        7.339       7.357       7.373       7.377       7.365       7.331       7.252       7.333       7.370       7.386    

 HEAD WILL BE SAVED ON UNIT   51 AT END OF TIME STEP   38, STRESS PERIOD    2

 DRAWDOWN WILL BE SAVED ON UNIT   52 AT END OF TIME STEP   38, STRESS PERIOD    2
1
  VOLUMETRIC BUDGET FOR ENTIRE MODEL AT END OF TIME STEP   38, STRESS PERIOD   2
  ------------------------------------------------------------------------------

     CUMULATIVE VOLUMES      L**3       RATES FOR THIS TIME STEP      L**3/T
     ------------------                 ------------------------

           IN:                                      IN:
           ---                                      ---
             STORAGE =           0.0000               STORAGE =           0.0000
       CONSTANT HEAD =           0.0000         CONSTANT HEAD =           0.0000
               WELLS =           0.0000                 WELLS =           0.0000
       RIVER LEAKAGE =     1076210.6250         RIVER LEAKAGE =        7773.9609
            RECHARGE =       21854.2402              RECHARGE =         564.4509

            TOTAL IN =     1098064.8750              TOTAL IN =        8338.4121

          OUT:                                     OUT:
          ----                                     ----
             STORAGE =     1090183.7500               STORAGE =        8141.9966
       CONSTANT HEAD =           0.0000         CONSTANT HEAD =           0.0000
               WELLS =        7742.8901                 WELLS =         198.4721
       RIVER LEAKAGE =         204.2491         RIVER LEAKAGE =           0.0000
            RECHARGE =           0.0000              RECHARGE =           0.0000

           TOTAL OUT =     1098130.8750             TOTAL OUT =        8340.4688

            IN - OUT =         -66.0000              IN - OUT =          -2.0566

 PERCENT DISCREPANCY =          -0.01     PERCENT DISCREPANCY =          -0.02






         TIME SUMMARY AT END OF TIME STEP   38 IN STRESS PERIOD    2
                    SECONDS     MINUTES      HOURS       DAYS        YEARS
                    -----------------------------------------------------------
   TIME STEP LENGTH  86400.      1440.0      24.000      1.0000     2.73785E-03
 STRESS PERIOD TIME 3.28320E+06  54720.      912.00      38.000     0.10404    
         TOTAL TIME 3.36960E+06  56160.      936.00      39.000     0.10678    
1

 SOLVING FOR HEAD 

    ------------------------------------------------
       NWT REQUIRED            3 OUTER ITERATIONS 
       AND A TOTAL OF          3 INNER ITERATIONS.
    ------------------------------------------------

 OUTPUT CONTROL FOR STRESS PERIOD    2   TIME STEP   39
    SAVE HEAD FOR ALL LAYERS
    SAVE DRAWDOWN FOR ALL LAYERS
    SAVE BUDGET
    PRINT HEAD FOR ALL LAYERS
    PRINT BUDGET
1
              HEAD IN LAYER   1 AT END OF TIME STEP  39 IN STRESS PERIOD    2
  ---------------------------------------------------------------------------

            1           2           3           4           5           6           7           8           9          10
           11          12          13          14          15          16          17          18          19          20
 ........................................................................................................................
   1    0.000       0.000       0.000       0.000       0.000       7.296       7.284       7.310       7.332       7.344    
        7.350       7.367       7.592       8.348       7.586       7.359       7.355       7.367       0.000       0.000    
   2    0.000       0.000       0.000       0.000       7.320       7.315       7.271       7.328       7.345       7.357    
        7.361       7.373       7.551       8.354       7.539       7.338       7.349       7.365       0.000       0.000    
   3    0.000       0.000       0.000       7.346       7.368       7.513       7.565       7.544       7.508       7.509    
        7.507       7.495       7.522       8.360       7.473       7.280       7.341       7.367       0.000       0.000    
   4    0.000       0.000       7.412       7.463       7.628       8.350       8.340       8.347       8.358       8.356    
        8.353       8.326       7.733       8.367       7.484       7.344       7.361       7.380       0.000       0.000    
   5    0.000       0.000       7.942       8.214       8.366       8.335       7.671       7.558       7.527       7.529    
        7.621       8.347       8.366       8.321       7.476       7.371       7.381       7.398       7.416       0.000    
   6    0.000       8.371       8.370       8.360       8.101       7.566       7.410       7.391       7.385       7.381    
        7.392       7.508       7.525       7.504       7.389       7.380       7.391       7.404       7.418       0.000    
   7    0.000       7.536       7.542       7.534       7.471       7.406       7.392       7.389       7.383       7.372    
        7.363       7.376       7.384       7.386       7.380       7.383       7.388       7.395       0.000       0.000    
   8    0.000       7.395       7.407       7.411       7.408       7.407       7.406       7.401       7.389       7.369    
        7.346       7.361       7.373       7.379       7.380       7.376       7.372       7.379       0.000       0.000    
   9    0.000       0.000       7.415       7.418       7.420       7.421       7.418       7.409       7.392       7.359    
        7.288       7.348       7.372       7.378       7.373       7.357       7.336       7.359       7.376       7.389    
  10    0.000       0.000       7.427       7.428       7.429       7.429       7.424       7.414       7.396       7.368    
        7.339       7.357       7.373       7.377       7.365       7.331       7.252       7.333       7.370       7.386    

 HEAD WILL BE SAVED ON UNIT   51 AT END OF TIME STEP   39, STRESS PERIOD    2

 DRAWDOWN WILL BE SAVED ON UNIT   52 AT END OF TIME STEP   39, STRESS PERIOD    2
1
  VOLUMETRIC BUDGET FOR ENTIRE MODEL AT END OF TIME STEP   39, STRESS PERIOD   2
  ------------------------------------------------------------------------------

     CUMULATIVE VOLUMES      L**3       RATES FOR THIS TIME STEP      L**3/T
     ------------------                 ------------------------

           IN:                                      IN:
           ---                                      ---
             STORAGE =           0.0000               STORAGE =           0.0000
       CONSTANT HEAD =           0.0000         CONSTANT HEAD =           0.0000
               WELLS =           0.0000                 WELLS =           0.0000
       RIVER LEAKAGE =     1083900.2500         RIVER LEAKAGE =        7689.6509
            RECHARGE =       22418.6914              RECHARGE =         564.4509

            TOTAL IN =     1106319.0000              TOTAL IN =        8254.1016

          OUT:                                     OUT:
          ----                                     ----
             STORAGE =     1098241.3750               STORAGE =        8057.6646
       CONSTANT HEAD =           0.0000         CONSTANT HEAD =           0.0000
               WELLS =        7941.3623                 WELLS =         198.4721
       RIVER LEAKAGE =         204.2491         RIVER LEAKAGE =           0.0000
            RECHARGE =           0.0000              RECHARGE =           0.0000

           TOTAL OUT =     1106387.0000             TOTAL OUT =        8256.1367

            IN - OUT =         -68.0000              IN - OUT =          -2.0352

 PERCENT DISCREPANCY =          -0.01     PERCENT DISCREPANCY =          -0.02






         TIME SUMMARY AT END OF TIME STEP   39 IN STRESS PERIOD    2
                    SECONDS     MINUTES      HOURS       DAYS        YEARS
                    -----------------------------------------------------------
   TIME STEP LENGTH  86400.      1440.0      24.000      1.0000     2.73785E-03
 STRESS PERIOD TIME 3.36960E+06  56160.      936.00      39.000     0.10678    
         TOTAL TIME 3.45600E+06  57600.      960.00      40.000     0.10951    
1

 SOLVING FOR HEAD 

    ------------------------------------------------
       NWT REQUIRED            3 OUTER ITERATIONS 
       AND A TOTAL OF          3 INNER ITERATIONS.
    ------------------------------------------------

 OUTPUT CONTROL FOR STRESS PERIOD    2   TIME STEP   40
    SAVE HEAD FOR ALL LAYERS
    SAVE DRAWDOWN FOR ALL LAYERS
    SAVE BUDGET
    PRINT HEAD FOR ALL LAYERS
    PRINT BUDGET
1
              HEAD IN LAYER   1 AT END OF TIME STEP  40 IN STRESS PERIOD    2
  ---------------------------------------------------------------------------

            1           2           3           4           5           6           7           8           9          10
           11          12          13          14          15          16          17          18          19          20
 ........................................................................................................................
   1    0.000       0.000       0.000       0.000       0.000       7.296       7.284       7.310       7.332       7.345    
        7.350       7.368       7.598       8.348       7.592       7.360       7.356       7.367       0.000       0.000    
   2    0.000       0.000       0.000       0.000       7.320       7.316       7.273       7.329       7.346       7.358    
        7.362       7.374       7.556       8.354       7.543       7.339       7.349       7.365       0.000       0.000    
   3    0.000       0.000       0.000       7.347       7.370       7.517       7.570       7.549       7.512       7.513    
        7.511       7.500       7.528       8.360       7.477       7.281       7.341       7.367       0.000       0.000    
   4    0.000       0.000       7.416       7.467       7.634       8.350       8.341       8.348       8.358       8.356    
        8.353       8.327       7.741       8.367       7.487       7.344       7.361       7.380       0.000       0.000    
   5    0.000       0.000       7.951       8.219       8.367       8.335       7.678       7.563       7.531       7.533    
        7.627       8.348       8.366       8.322       7.479       7.372       7.381       7.398       7.416       0.000    
   6    0.000       8.371       8.371       8.360       8.107       7.572       7.413       7.392       7.386       7.382    
        7.394       7.512       7.529       7.507       7.390       7.380       7.391       7.404       7.418       0.000    
   7    0.000       7.540       7.546       7.538       7.474       7.407       7.392       7.389       7.383       7.372    
        7.364       7.377       7.384       7.386       7.381       7.383       7.388       7.395       0.000       0.000    
   8    0.000       7.396       7.408       7.412       7.409       7.407       7.406       7.401       7.389       7.369    
        7.346       7.361       7.373       7.380       7.380       7.376       7.372       7.379       0.000       0.000    
   9    0.000       0.000       7.415       7.418       7.420       7.421       7.418       7.409       7.392       7.359    
        7.288       7.349       7.372       7.378       7.373       7.357       7.336       7.359       7.377       7.389    
  10    0.000       0.000       7.427       7.428       7.429       7.429       7.424       7.414       7.396       7.368    
        7.339       7.357       7.373       7.377       7.365       7.331       7.252       7.333       7.370       7.386    

 HEAD WILL BE SAVED ON UNIT   51 AT END OF TIME STEP   40, STRESS PERIOD    2

 DRAWDOWN WILL BE SAVED ON UNIT   52 AT END OF TIME STEP   40, STRESS PERIOD    2
1
  VOLUMETRIC BUDGET FOR ENTIRE MODEL AT END OF TIME STEP   40, STRESS PERIOD   2
  ------------------------------------------------------------------------------

     CUMULATIVE VOLUMES      L**3       RATES FOR THIS TIME STEP      L**3/T
     ------------------                 ------------------------

           IN:                                      IN:
           ---                                      ---
             STORAGE =           0.0000               STORAGE =           0.0000
       CONSTANT HEAD =           0.0000         CONSTANT HEAD =           0.0000
               WELLS =           0.0000                 WELLS =           0.0000
       RIVER LEAKAGE =     1091509.1250         RIVER LEAKAGE =        7608.8569
            RECHARGE =       22983.1426              RECHARGE =         564.4509

            TOTAL IN =     1114492.2500              TOTAL IN =        8173.3076

          OUT:                                     OUT:
          ----                                     ----
             STORAGE =     1106218.2500               STORAGE =        7976.8491
       CONSTANT HEAD =           0.0000         CONSTANT HEAD =           0.0000
               WELLS =        8139.8345                 WELLS =         198.4721
       RIVER LEAKAGE =         204.2491         RIVER LEAKAGE =           0.0000
            RECHARGE =           0.0000              RECHARGE =           0.0000

           TOTAL OUT =     1114562.3750             TOTAL OUT =        8175.3213

            IN - OUT =         -70.1250              IN - OUT =          -2.0137

 PERCENT DISCREPANCY =          -0.01     PERCENT DISCREPANCY =          -0.02






         TIME SUMMARY AT END OF TIME STEP   40 IN STRESS PERIOD    2
                    SECONDS     MINUTES      HOURS       DAYS        YEARS
                    -----------------------------------------------------------
   TIME STEP LENGTH  86400.      1440.0      24.000      1.0000     2.73785E-03
 STRESS PERIOD TIME 3.45600E+06  57600.      960.00      40.000     0.10951    
         TOTAL TIME 3.54240E+06  59040.      984.00      41.000     0.11225    
1

 SOLVING FOR HEAD 

    ------------------------------------------------
       NWT REQUIRED            3 OUTER ITERATIONS 
       AND A TOTAL OF          3 INNER ITERATIONS.
    ------------------------------------------------

 OUTPUT CONTROL FOR STRESS PERIOD    2   TIME STEP   41
    SAVE HEAD FOR ALL LAYERS
    SAVE DRAWDOWN FOR ALL LAYERS
    SAVE BUDGET
    PRINT HEAD FOR ALL LAYERS
    PRINT BUDGET
1
              HEAD IN LAYER   1 AT END OF TIME STEP  41 IN STRESS PERIOD    2
  ---------------------------------------------------------------------------

            1           2           3           4           5           6           7           8           9          10
           11          12          13          14          15          16          17          18          19          20
 ........................................................................................................................
   1    0.000       0.000       0.000       0.000       0.000       7.296       7.284       7.310       7.332       7.345    
        7.350       7.369       7.603       8.348       7.597       7.361       7.356       7.367       0.000       0.000    
   2    0.000       0.000       0.000       0.000       7.321       7.318       7.274       7.331       7.347       7.359    
        7.363       7.376       7.561       8.354       7.548       7.340       7.349       7.365       0.000       0.000    
   3    0.000       0.000       0.000       7.348       7.372       7.522       7.576       7.554       7.516       7.517    
        7.515       7.504       7.533       8.360       7.481       7.282       7.341       7.367       0.000       0.000    
   4    0.000       0.000       7.419       7.472       7.640       8.351       8.341       8.348       8.358       8.356    
        8.354       8.328       7.749       8.367       7.491       7.345       7.361       7.380       0.000       0.000    
   5    0.000       0.000       7.959       8.224       8.367       8.336       7.685       7.567       7.535       7.537    
        7.633       8.348       8.366       8.322       7.482       7.372       7.381       7.398       7.416       0.000    
   6    0.000       8.371       8.371       8.360       8.113       7.577       7.415       7.393       7.387       7.383    
        7.396       7.515       7.533       7.511       7.391       7.380       7.391       7.404       7.418       0.000    
   7    0.000       7.544       7.550       7.542       7.478       7.408       7.392       7.390       7.383       7.372    
        7.364       7.378       7.385       7.387       7.381       7.383       7.388       7.395       0.000       0.000    
   8    0.000       7.397       7.409       7.413       7.410       7.407       7.406       7.401       7.389       7.369    
        7.346       7.361       7.373       7.380       7.380       7.376       7.372       7.379       0.000       0.000    
   9    0.000       0.000       7.416       7.418       7.420       7.421       7.418       7.409       7.392       7.359    
        7.288       7.349       7.372       7.379       7.373       7.357       7.336       7.359       7.377       7.389    
  10    0.000       0.000       7.427       7.428       7.429       7.429       7.424       7.414       7.396       7.368    
        7.339       7.358       7.373       7.377       7.365       7.331       7.252       7.333       7.370       7.386    

 HEAD WILL BE SAVED ON UNIT   51 AT END OF TIME STEP   41, STRESS PERIOD    2

 DRAWDOWN WILL BE SAVED ON UNIT   52 AT END OF TIME STEP   41, STRESS PERIOD    2
1
  VOLUMETRIC BUDGET FOR ENTIRE MODEL AT END OF TIME STEP   41, STRESS PERIOD   2
  ------------------------------------------------------------------------------

     CUMULATIVE VOLUMES      L**3       RATES FOR THIS TIME STEP      L**3/T
     ------------------                 ------------------------

           IN:                                      IN:
           ---                                      ---
             STORAGE =           0.0000               STORAGE =           0.0000
       CONSTANT HEAD =           0.0000         CONSTANT HEAD =           0.0000
               WELLS =           0.0000                 WELLS =           0.0000
       RIVER LEAKAGE =     1099040.3750         RIVER LEAKAGE =        7531.2832
            RECHARGE =       23547.5938              RECHARGE =         564.4509

            TOTAL IN =     1122588.0000              TOTAL IN =        8095.7339

          OUT:                                     OUT:
          ----                                     ----
             STORAGE =     1114117.5000               STORAGE =        7899.2554
       CONSTANT HEAD =           0.0000         CONSTANT HEAD =           0.0000
               WELLS =        8338.3066                 WELLS =         198.4721
       RIVER LEAKAGE =         204.2491         RIVER LEAKAGE =           0.0000
            RECHARGE =           0.0000              RECHARGE =           0.0000

           TOTAL OUT =     1122660.0000             TOTAL OUT =        8097.7275

            IN - OUT =         -72.0000              IN - OUT =          -1.9937

 PERCENT DISCREPANCY =          -0.01     PERCENT DISCREPANCY =          -0.02






         TIME SUMMARY AT END OF TIME STEP   41 IN STRESS PERIOD    2
                    SECONDS     MINUTES      HOURS       DAYS        YEARS
                    -----------------------------------------------------------
   TIME STEP LENGTH  86400.      1440.0      24.000      1.0000     2.73785E-03
 STRESS PERIOD TIME 3.54240E+06  59040.      984.00      41.000     0.11225    
         TOTAL TIME 3.62880E+06  60480.      1008.0      42.000     0.11499    
1

 SOLVING FOR HEAD 

    ------------------------------------------------
       NWT REQUIRED            3 OUTER ITERATIONS 
       AND A TOTAL OF          3 INNER ITERATIONS.
    ------------------------------------------------

 OUTPUT CONTROL FOR STRESS PERIOD    2   TIME STEP   42
    SAVE HEAD FOR ALL LAYERS
    SAVE DRAWDOWN FOR ALL LAYERS
    SAVE BUDGET
    PRINT HEAD FOR ALL LAYERS
    PRINT BUDGET
1
              HEAD IN LAYER   1 AT END OF TIME STEP  42 IN STRESS PERIOD    2
  ---------------------------------------------------------------------------

            1           2           3           4           5           6           7           8           9          10
           11          12          13          14          15          16          17          18          19          20
 ........................................................................................................................
   1    0.000       0.000       0.000       0.000       0.000       7.296       7.285       7.311       7.332       7.345    
        7.351       7.371       7.609       8.349       7.603       7.362       7.356       7.367       0.000       0.000    
   2    0.000       0.000       0.000       0.000       7.321       7.319       7.276       7.332       7.348       7.359    
        7.364       7.377       7.566       8.354       7.553       7.341       7.349       7.365       0.000       0.000    
   3    0.000       0.000       0.000       7.349       7.374       7.526       7.581       7.559       7.520       7.521    
        7.519       7.508       7.539       8.360       7.484       7.282       7.341       7.367       0.000       0.000    
   4    0.000       0.000       7.423       7.476       7.646       8.351       8.342       8.348       8.358       8.356    
        8.354       8.329       7.758       8.367       7.494       7.346       7.361       7.380       0.000       0.000    
   5    0.000       0.000       7.967       8.229       8.367       8.336       7.692       7.572       7.540       7.542    
        7.639       8.348       8.367       8.323       7.485       7.373       7.381       7.398       7.416       0.000    
   6    0.000       8.371       8.371       8.361       8.119       7.582       7.417       7.394       7.388       7.384    
        7.398       7.519       7.537       7.514       7.392       7.381       7.391       7.404       7.418       0.000    
   7    0.000       7.548       7.554       7.546       7.481       7.410       7.393       7.390       7.383       7.373    
        7.364       7.378       7.386       7.388       7.381       7.383       7.388       7.395       0.000       0.000    
   8    0.000       7.398       7.410       7.414       7.410       7.407       7.406       7.401       7.389       7.369    
        7.346       7.361       7.374       7.380       7.380       7.376       7.372       7.379       0.000       0.000    
   9    0.000       0.000       7.416       7.418       7.420       7.421       7.418       7.409       7.392       7.359    
        7.288       7.349       7.372       7.379       7.373       7.357       7.336       7.359       7.377       7.389    
  10    0.000       0.000       7.427       7.428       7.429       7.429       7.424       7.414       7.396       7.368    
        7.339       7.358       7.373       7.377       7.366       7.331       7.252       7.333       7.370       7.386    

 HEAD WILL BE SAVED ON UNIT   51 AT END OF TIME STEP   42, STRESS PERIOD    2

 DRAWDOWN WILL BE SAVED ON UNIT   52 AT END OF TIME STEP   42, STRESS PERIOD    2
1
  VOLUMETRIC BUDGET FOR ENTIRE MODEL AT END OF TIME STEP   42, STRESS PERIOD   2
  ------------------------------------------------------------------------------

     CUMULATIVE VOLUMES      L**3       RATES FOR THIS TIME STEP      L**3/T
     ------------------                 ------------------------

           IN:                                      IN:
           ---                                      ---
             STORAGE =           0.0000               STORAGE =           0.0000
       CONSTANT HEAD =           0.0000         CONSTANT HEAD =           0.0000
               WELLS =           0.0000                 WELLS =           0.0000
       RIVER LEAKAGE =     1106497.0000         RIVER LEAKAGE =        7456.6299
            RECHARGE =       24112.0449              RECHARGE =         564.4509

            TOTAL IN =     1130609.0000              TOTAL IN =        8021.0806

          OUT:                                     OUT:
          ----                                     ----
             STORAGE =     1121942.1250               STORAGE =        7824.5830
       CONSTANT HEAD =           0.0000         CONSTANT HEAD =           0.0000
               WELLS =        8536.7783                 WELLS =         198.4721
       RIVER LEAKAGE =         204.2491         RIVER LEAKAGE =           0.0000
            RECHARGE =           0.0000              RECHARGE =           0.0000

           TOTAL OUT =     1130683.1250             TOTAL OUT =        8023.0552

            IN - OUT =         -74.1250              IN - OUT =          -1.9746

 PERCENT DISCREPANCY =          -0.01     PERCENT DISCREPANCY =          -0.02






         TIME SUMMARY AT END OF TIME STEP   42 IN STRESS PERIOD    2
                    SECONDS     MINUTES      HOURS       DAYS        YEARS
                    -----------------------------------------------------------
   TIME STEP LENGTH  86400.      1440.0      24.000      1.0000     2.73785E-03
 STRESS PERIOD TIME 3.62880E+06  60480.      1008.0      42.000     0.11499    
         TOTAL TIME 3.71520E+06  61920.      1032.0      43.000     0.11773    
1

 SOLVING FOR HEAD 

    ------------------------------------------------
       NWT REQUIRED            3 OUTER ITERATIONS 
       AND A TOTAL OF          3 INNER ITERATIONS.
    ------------------------------------------------

 OUTPUT CONTROL FOR STRESS PERIOD    2   TIME STEP   43
    SAVE HEAD FOR ALL LAYERS
    SAVE DRAWDOWN FOR ALL LAYERS
    SAVE BUDGET
    PRINT HEAD FOR ALL LAYERS
    PRINT BUDGET
1
              HEAD IN LAYER   1 AT END OF TIME STEP  43 IN STRESS PERIOD    2
  ---------------------------------------------------------------------------

            1           2           3           4           5           6           7           8           9          10
           11          12          13          14          15          16          17          18          19          20
 ........................................................................................................................
   1    0.000       0.000       0.000       0.000       0.000       7.296       7.285       7.311       7.332       7.345    
        7.351       7.372       7.614       8.349       7.608       7.363       7.356       7.367       0.000       0.000    
   2    0.000       0.000       0.000       0.000       7.321       7.320       7.277       7.333       7.349       7.360    
        7.365       7.379       7.571       8.354       7.558       7.342       7.349       7.365       0.000       0.000    
   3    0.000       0.000       0.000       7.350       7.376       7.530       7.586       7.564       7.525       7.525    
        7.523       7.512       7.544       8.360       7.488       7.283       7.341       7.367       0.000       0.000    
   4    0.000       0.000       7.426       7.481       7.652       8.351       8.342       8.348       8.358       8.356    
        8.354       8.329       7.766       8.367       7.498       7.346       7.361       7.380       0.000       0.000    
   5    0.000       0.000       7.975       8.233       8.368       8.337       7.698       7.577       7.544       7.546    
        7.644       8.349       8.367       8.323       7.489       7.373       7.381       7.398       7.416       0.000    
   6    0.000       8.371       8.371       8.361       8.124       7.588       7.420       7.395       7.389       7.385    
        7.399       7.523       7.541       7.518       7.393       7.381       7.391       7.404       7.418       0.000    
   7    0.000       7.552       7.558       7.550       7.484       7.411       7.393       7.390       7.383       7.373    
        7.365       7.379       7.387       7.389       7.381       7.383       7.388       7.395       0.000       0.000    
   8    0.000       7.399       7.411       7.415       7.411       7.407       7.406       7.401       7.389       7.369    
        7.346       7.361       7.374       7.380       7.380       7.376       7.372       7.379       0.000       0.000    
   9    0.000       0.000       7.416       7.418       7.420       7.421       7.418       7.410       7.392       7.359    
        7.288       7.349       7.372       7.379       7.373       7.357       7.336       7.359       7.377       7.389    
  10    0.000       0.000       7.427       7.428       7.429       7.429       7.425       7.414       7.396       7.368    
        7.339       7.358       7.373       7.377       7.366       7.331       7.252       7.333       7.370       7.386    

 HEAD WILL BE SAVED ON UNIT   51 AT END OF TIME STEP   43, STRESS PERIOD    2

 DRAWDOWN WILL BE SAVED ON UNIT   52 AT END OF TIME STEP   43, STRESS PERIOD    2
1
  VOLUMETRIC BUDGET FOR ENTIRE MODEL AT END OF TIME STEP   43, STRESS PERIOD   2
  ------------------------------------------------------------------------------

     CUMULATIVE VOLUMES      L**3       RATES FOR THIS TIME STEP      L**3/T
     ------------------                 ------------------------

           IN:                                      IN:
           ---                                      ---
             STORAGE =           0.0000               STORAGE =           0.0000
       CONSTANT HEAD =           0.0000         CONSTANT HEAD =           0.0000
               WELLS =           0.0000                 WELLS =           0.0000
       RIVER LEAKAGE =     1113881.6250         RIVER LEAKAGE =        7384.6870
            RECHARGE =       24676.4961              RECHARGE =         564.4509

            TOTAL IN =     1138558.1250              TOTAL IN =        7949.1377

          OUT:                                     OUT:
          ----                                     ----
             STORAGE =     1129694.7500               STORAGE =        7752.6206
       CONSTANT HEAD =           0.0000         CONSTANT HEAD =           0.0000
               WELLS =        8735.2500                 WELLS =         198.4721
       RIVER LEAKAGE =         204.2491         RIVER LEAKAGE =           0.0000
            RECHARGE =           0.0000              RECHARGE =           0.0000

           TOTAL OUT =     1138634.2500             TOTAL OUT =        7951.0928

            IN - OUT =         -76.1250              IN - OUT =          -1.9551

 PERCENT DISCREPANCY =          -0.01     PERCENT DISCREPANCY =          -0.02






         TIME SUMMARY AT END OF TIME STEP   43 IN STRESS PERIOD    2
                    SECONDS     MINUTES      HOURS       DAYS        YEARS
                    -----------------------------------------------------------
   TIME STEP LENGTH  86400.      1440.0      24.000      1.0000     2.73785E-03
 STRESS PERIOD TIME 3.71520E+06  61920.      1032.0      43.000     0.11773    
         TOTAL TIME 3.80160E+06  63360.      1056.0      44.000     0.12047    
1

 SOLVING FOR HEAD 

    ------------------------------------------------
       NWT REQUIRED            3 OUTER ITERATIONS 
       AND A TOTAL OF          3 INNER ITERATIONS.
    ------------------------------------------------

 OUTPUT CONTROL FOR STRESS PERIOD    2   TIME STEP   44
    SAVE HEAD FOR ALL LAYERS
    SAVE DRAWDOWN FOR ALL LAYERS
    SAVE BUDGET
    PRINT HEAD FOR ALL LAYERS
    PRINT BUDGET
1
              HEAD IN LAYER   1 AT END OF TIME STEP  44 IN STRESS PERIOD    2
  ---------------------------------------------------------------------------

            1           2           3           4           5           6           7           8           9          10
           11          12          13          14          15          16          17          18          19          20
 ........................................................................................................................
   1    0.000       0.000       0.000       0.000       0.000       7.297       7.285       7.311       7.332       7.345    
        7.351       7.373       7.619       8.349       7.613       7.364       7.356       7.367       0.000       0.000    
   2    0.000       0.000       0.000       0.000       7.322       7.321       7.279       7.335       7.350       7.361    
        7.366       7.381       7.575       8.354       7.562       7.343       7.349       7.365       0.000       0.000    
   3    0.000       0.000       0.000       7.351       7.378       7.534       7.591       7.568       7.529       7.529    
        7.527       7.517       7.549       8.361       7.492       7.284       7.341       7.367       0.000       0.000    
   4    0.000       0.000       7.430       7.485       7.658       8.351       8.342       8.349       8.358       8.356    
        8.354       8.330       7.773       8.367       7.501       7.347       7.361       7.380       0.000       0.000    
   5    0.000       0.000       7.983       8.237       8.368       8.338       7.704       7.582       7.548       7.550    
        7.650       8.349       8.367       8.324       7.492       7.374       7.382       7.398       7.416       0.000    
   6    0.000       8.371       8.371       8.361       8.130       7.593       7.422       7.397       7.390       7.386    
        7.401       7.526       7.545       7.521       7.394       7.381       7.391       7.404       7.418       0.000    
   7    0.000       7.556       7.562       7.553       7.488       7.412       7.394       7.390       7.383       7.373    
        7.365       7.380       7.388       7.389       7.381       7.383       7.388       7.395       0.000       0.000    
   8    0.000       7.400       7.412       7.416       7.411       7.408       7.406       7.401       7.389       7.369    
        7.346       7.361       7.374       7.380       7.380       7.376       7.372       7.379       0.000       0.000    
   9    0.000       0.000       7.416       7.418       7.420       7.421       7.418       7.410       7.392       7.359    
        7.288       7.349       7.372       7.379       7.374       7.357       7.336       7.359       7.377       7.389    
  10    0.000       0.000       7.427       7.428       7.429       7.429       7.425       7.414       7.396       7.368    
        7.339       7.358       7.373       7.377       7.366       7.331       7.252       7.333       7.370       7.386    

 HEAD WILL BE SAVED ON UNIT   51 AT END OF TIME STEP   44, STRESS PERIOD    2

 DRAWDOWN WILL BE SAVED ON UNIT   52 AT END OF TIME STEP   44, STRESS PERIOD    2
1
  VOLUMETRIC BUDGET FOR ENTIRE MODEL AT END OF TIME STEP   44, STRESS PERIOD   2
  ------------------------------------------------------------------------------

     CUMULATIVE VOLUMES      L**3       RATES FOR THIS TIME STEP      L**3/T
     ------------------                 ------------------------

           IN:                                      IN:
           ---                                      ---
             STORAGE =           0.0000               STORAGE =           0.0000
       CONSTANT HEAD =           0.0000         CONSTANT HEAD =           0.0000
               WELLS =           0.0000                 WELLS =           0.0000
       RIVER LEAKAGE =     1121196.8750         RIVER LEAKAGE =        7315.1943
            RECHARGE =       25240.9473              RECHARGE =         564.4509

            TOTAL IN =     1146437.8750              TOTAL IN =        7879.6450

          OUT:                                     OUT:
          ----                                     ----
             STORAGE =     1137377.8750               STORAGE =        7683.1104
       CONSTANT HEAD =           0.0000         CONSTANT HEAD =           0.0000
               WELLS =        8933.7217                 WELLS =         198.4721
       RIVER LEAKAGE =         204.2491         RIVER LEAKAGE =           0.0000
            RECHARGE =           0.0000              RECHARGE =           0.0000

           TOTAL OUT =     1146515.8750             TOTAL OUT =        7881.5825

            IN - OUT =         -78.0000              IN - OUT =          -1.9375

 PERCENT DISCREPANCY =          -0.01     PERCENT DISCREPANCY =          -0.02






         TIME SUMMARY AT END OF TIME STEP   44 IN STRESS PERIOD    2
                    SECONDS     MINUTES      HOURS       DAYS        YEARS
                    -----------------------------------------------------------
   TIME STEP LENGTH  86400.      1440.0      24.000      1.0000     2.73785E-03
 STRESS PERIOD TIME 3.80160E+06  63360.      1056.0      44.000     0.12047    
         TOTAL TIME 3.88800E+06  64800.      1080.0      45.000     0.12320    
1

 SOLVING FOR HEAD 

    ------------------------------------------------
       NWT REQUIRED            3 OUTER ITERATIONS 
       AND A TOTAL OF          3 INNER ITERATIONS.
    ------------------------------------------------

 OUTPUT CONTROL FOR STRESS PERIOD    2   TIME STEP   45
    SAVE HEAD FOR ALL LAYERS
    SAVE DRAWDOWN FOR ALL LAYERS
    SAVE BUDGET
    PRINT HEAD FOR ALL LAYERS
    PRINT BUDGET
1
              HEAD IN LAYER   1 AT END OF TIME STEP  45 IN STRESS PERIOD    2
  ---------------------------------------------------------------------------

            1           2           3           4           5           6           7           8           9          10
           11          12          13          14          15          16          17          18          19          20
 ........................................................................................................................
   1    0.000       0.000       0.000       0.000       0.000       7.297       7.285       7.311       7.332       7.345    
        7.351       7.374       7.624       8.350       7.619       7.366       7.356       7.367       0.000       0.000    
   2    0.000       0.000       0.000       0.000       7.322       7.322       7.280       7.336       7.351       7.362    
        7.367       7.383       7.580       8.355       7.567       7.344       7.350       7.365       0.000       0.000    
   3    0.000       0.000       0.000       7.352       7.380       7.539       7.596       7.573       7.533       7.533    
        7.531       7.521       7.555       8.361       7.496       7.285       7.341       7.367       0.000       0.000    
   4    0.000       0.000       7.434       7.489       7.663       8.352       8.343       8.349       8.358       8.356    
        8.355       8.331       7.781       8.368       7.505       7.348       7.362       7.380       0.000       0.000    
   5    0.000       0.000       7.991       8.240       8.368       8.338       7.711       7.587       7.552       7.555    
        7.656       8.349       8.367       8.324       7.495       7.375       7.382       7.398       7.416       0.000    
   6    0.000       8.371       8.371       8.362       8.135       7.598       7.424       7.398       7.391       7.387    
        7.403       7.530       7.548       7.525       7.396       7.381       7.391       7.404       7.418       0.000    
   7    0.000       7.560       7.566       7.557       7.491       7.414       7.394       7.390       7.384       7.373    
        7.365       7.381       7.389       7.390       7.382       7.383       7.388       7.395       0.000       0.000    
   8    0.000       7.401       7.413       7.416       7.412       7.408       7.406       7.401       7.389       7.369    
        7.346       7.361       7.374       7.380       7.380       7.376       7.372       7.379       0.000       0.000    
   9    0.000       0.000       7.416       7.419       7.420       7.421       7.418       7.410       7.392       7.359    
        7.288       7.349       7.372       7.379       7.374       7.357       7.336       7.359       7.377       7.389    
  10    0.000       0.000       7.427       7.428       7.429       7.429       7.425       7.414       7.396       7.368    
        7.339       7.358       7.373       7.377       7.366       7.331       7.252       7.333       7.370       7.386    

 HEAD WILL BE SAVED ON UNIT   51 AT END OF TIME STEP   45, STRESS PERIOD    2

 DRAWDOWN WILL BE SAVED ON UNIT   52 AT END OF TIME STEP   45, STRESS PERIOD    2
1
  VOLUMETRIC BUDGET FOR ENTIRE MODEL AT END OF TIME STEP   45, STRESS PERIOD   2
  ------------------------------------------------------------------------------

     CUMULATIVE VOLUMES      L**3       RATES FOR THIS TIME STEP      L**3/T
     ------------------                 ------------------------

           IN:                                      IN:
           ---                                      ---
             STORAGE =           0.0000               STORAGE =           0.0000
       CONSTANT HEAD =           0.0000         CONSTANT HEAD =           0.0000
               WELLS =           0.0000                 WELLS =           0.0000
       RIVER LEAKAGE =     1128444.8750         RIVER LEAKAGE =        7248.0293
            RECHARGE =       25805.3984              RECHARGE =         564.4509

            TOTAL IN =     1154250.2500              TOTAL IN =        7812.4800

          OUT:                                     OUT:
          ----                                     ----
             STORAGE =     1144993.7500               STORAGE =        7615.9277
       CONSTANT HEAD =           0.0000         CONSTANT HEAD =           0.0000
               WELLS =        9132.1934                 WELLS =         198.4721
       RIVER LEAKAGE =         204.2491         RIVER LEAKAGE =           0.0000
            RECHARGE =           0.0000              RECHARGE =           0.0000

           TOTAL OUT =     1154330.2500             TOTAL OUT =        7814.3999

            IN - OUT =         -80.0000              IN - OUT =          -1.9199

 PERCENT DISCREPANCY =          -0.01     PERCENT DISCREPANCY =          -0.02






         TIME SUMMARY AT END OF TIME STEP   45 IN STRESS PERIOD    2
                    SECONDS     MINUTES      HOURS       DAYS        YEARS
                    -----------------------------------------------------------
   TIME STEP LENGTH  86400.      1440.0      24.000      1.0000     2.73785E-03
 STRESS PERIOD TIME 3.88800E+06  64800.      1080.0      45.000     0.12320    
         TOTAL TIME 3.97440E+06  66240.      1104.0      46.000     0.12594    
1

 SOLVING FOR HEAD 

    ------------------------------------------------
       NWT REQUIRED            3 OUTER ITERATIONS 
       AND A TOTAL OF          3 INNER ITERATIONS.
    ------------------------------------------------

 OUTPUT CONTROL FOR STRESS PERIOD    2   TIME STEP   46
    SAVE HEAD FOR ALL LAYERS
    SAVE DRAWDOWN FOR ALL LAYERS
    SAVE BUDGET
    PRINT HEAD FOR ALL LAYERS
    PRINT BUDGET
1
              HEAD IN LAYER   1 AT END OF TIME STEP  46 IN STRESS PERIOD    2
  ---------------------------------------------------------------------------

            1           2           3           4           5           6           7           8           9          10
           11          12          13          14          15          16          17          18          19          20
 ........................................................................................................................
   1    0.000       0.000       0.000       0.000       0.000       7.297       7.286       7.311       7.333       7.345    
        7.352       7.376       7.630       8.350       7.624       7.367       7.356       7.367       0.000       0.000    
   2    0.000       0.000       0.000       0.000       7.323       7.323       7.282       7.337       7.352       7.363    
        7.368       7.384       7.585       8.355       7.571       7.345       7.350       7.365       0.000       0.000    
   3    0.000       0.000       0.000       7.353       7.383       7.543       7.601       7.578       7.537       7.536    
        7.535       7.525       7.560       8.361       7.500       7.286       7.341       7.367       0.000       0.000    
   4    0.000       0.000       7.437       7.494       7.669       8.352       8.343       8.349       8.359       8.357    
        8.355       8.331       7.789       8.368       7.508       7.349       7.362       7.380       0.000       0.000    
   5    0.000       0.000       7.998       8.244       8.368       8.338       7.717       7.591       7.556       7.559    
        7.661       8.349       8.367       8.325       7.498       7.375       7.382       7.398       7.416       0.000    
   6    0.000       8.371       8.371       8.362       8.140       7.603       7.427       7.399       7.392       7.388    
        7.405       7.533       7.552       7.528       7.397       7.381       7.391       7.404       7.418       0.000    
   7    0.000       7.564       7.570       7.561       7.495       7.415       7.395       7.390       7.384       7.373    
        7.365       7.382       7.390       7.391       7.382       7.383       7.388       7.395       0.000       0.000    
   8    0.000       7.402       7.414       7.417       7.413       7.408       7.407       7.401       7.389       7.369    
        7.346       7.361       7.374       7.380       7.380       7.376       7.372       7.379       0.000       0.000    
   9    0.000       0.000       7.416       7.419       7.421       7.421       7.418       7.410       7.392       7.359    
        7.288       7.349       7.372       7.379       7.374       7.357       7.336       7.359       7.377       7.389    
  10    0.000       0.000       7.427       7.428       7.429       7.429       7.425       7.414       7.396       7.368    
        7.339       7.358       7.373       7.377       7.366       7.331       7.252       7.333       7.370       7.387    

 HEAD WILL BE SAVED ON UNIT   51 AT END OF TIME STEP   46, STRESS PERIOD    2

 DRAWDOWN WILL BE SAVED ON UNIT   52 AT END OF TIME STEP   46, STRESS PERIOD    2
1
  VOLUMETRIC BUDGET FOR ENTIRE MODEL AT END OF TIME STEP   46, STRESS PERIOD   2
  ------------------------------------------------------------------------------

     CUMULATIVE VOLUMES      L**3       RATES FOR THIS TIME STEP      L**3/T
     ------------------                 ------------------------

           IN:                                      IN:
           ---                                      ---
             STORAGE =           0.0000               STORAGE =           0.0000
       CONSTANT HEAD =           0.0000         CONSTANT HEAD =           0.0000
               WELLS =           0.0000                 WELLS =           0.0000
       RIVER LEAKAGE =     1135627.8750         RIVER LEAKAGE =        7182.9868
            RECHARGE =       26369.8496              RECHARGE =         564.4509

            TOTAL IN =     1161997.7500              TOTAL IN =        7747.4375

          OUT:                                     OUT:
          ----                                     ----
             STORAGE =     1152544.6250               STORAGE =        7550.8687
       CONSTANT HEAD =           0.0000         CONSTANT HEAD =           0.0000
               WELLS =        9330.6650                 WELLS =         198.4721
       RIVER LEAKAGE =         204.2491         RIVER LEAKAGE =           0.0000
            RECHARGE =           0.0000              RECHARGE =           0.0000

           TOTAL OUT =     1162079.5000             TOTAL OUT =        7749.3408

            IN - OUT =         -81.7500              IN - OUT =          -1.9033

 PERCENT DISCREPANCY =          -0.01     PERCENT DISCREPANCY =          -0.02






         TIME SUMMARY AT END OF TIME STEP   46 IN STRESS PERIOD    2
                    SECONDS     MINUTES      HOURS       DAYS        YEARS
                    -----------------------------------------------------------
   TIME STEP LENGTH  86400.      1440.0      24.000      1.0000     2.73785E-03
 STRESS PERIOD TIME 3.97440E+06  66240.      1104.0      46.000     0.12594    
         TOTAL TIME 4.06080E+06  67680.      1128.0      47.000     0.12868    
1

 SOLVING FOR HEAD 

    ------------------------------------------------
       NWT REQUIRED            3 OUTER ITERATIONS 
       AND A TOTAL OF          3 INNER ITERATIONS.
    ------------------------------------------------

 OUTPUT CONTROL FOR STRESS PERIOD    2   TIME STEP   47
    SAVE HEAD FOR ALL LAYERS
    SAVE DRAWDOWN FOR ALL LAYERS
    SAVE BUDGET
    PRINT HEAD FOR ALL LAYERS
    PRINT BUDGET
1
              HEAD IN LAYER   1 AT END OF TIME STEP  47 IN STRESS PERIOD    2
  ---------------------------------------------------------------------------

            1           2           3           4           5           6           7           8           9          10
           11          12          13          14          15          16          17          18          19          20
 ........................................................................................................................
   1    0.000       0.000       0.000       0.000       0.000       7.297       7.286       7.312       7.333       7.346    
        7.352       7.377       7.635       8.350       7.629       7.368       7.357       7.367       0.000       0.000    
   2    0.000       0.000       0.000       0.000       7.323       7.324       7.284       7.339       7.353       7.364    
        7.369       7.386       7.590       8.355       7.576       7.346       7.350       7.366       0.000       0.000    
   3    0.000       0.000       0.000       7.354       7.385       7.547       7.606       7.582       7.541       7.540    
        7.539       7.529       7.565       8.361       7.503       7.286       7.341       7.367       0.000       0.000    
   4    0.000       0.000       7.441       7.498       7.674       8.352       8.343       8.349       8.359       8.357    
        8.355       8.332       7.796       8.368       7.511       7.349       7.362       7.380       0.000       0.000    
   5    0.000       0.000       8.005       8.247       8.369       8.339       7.723       7.596       7.560       7.563    
        7.666       8.350       8.367       8.325       7.501       7.376       7.382       7.398       7.416       0.000    
   6    0.000       8.371       8.372       8.362       8.144       7.608       7.429       7.400       7.393       7.389    
        7.407       7.536       7.556       7.532       7.398       7.382       7.391       7.404       7.418       0.000    
   7    0.000       7.568       7.574       7.564       7.498       7.417       7.395       7.391       7.384       7.373    
        7.366       7.382       7.391       7.392       7.382       7.383       7.388       7.395       0.000       0.000    
   8    0.000       7.403       7.415       7.418       7.413       7.408       7.407       7.401       7.389       7.369    
        7.346       7.362       7.374       7.380       7.380       7.376       7.372       7.379       0.000       0.000    
   9    0.000       0.000       7.416       7.419       7.421       7.421       7.418       7.410       7.392       7.359    
        7.288       7.349       7.372       7.379       7.374       7.357       7.336       7.359       7.377       7.389    
  10    0.000       0.000       7.427       7.428       7.429       7.429       7.425       7.414       7.396       7.368    
        7.339       7.358       7.373       7.377       7.366       7.331       7.252       7.333       7.370       7.387    

 HEAD WILL BE SAVED ON UNIT   51 AT END OF TIME STEP   47, STRESS PERIOD    2

 DRAWDOWN WILL BE SAVED ON UNIT   52 AT END OF TIME STEP   47, STRESS PERIOD    2
1
  VOLUMETRIC BUDGET FOR ENTIRE MODEL AT END OF TIME STEP   47, STRESS PERIOD   2
  ------------------------------------------------------------------------------

     CUMULATIVE VOLUMES      L**3       RATES FOR THIS TIME STEP      L**3/T
     ------------------                 ------------------------

           IN:                                      IN:
           ---                                      ---
             STORAGE =           0.0000               STORAGE =           0.0000
       CONSTANT HEAD =           0.0000         CONSTANT HEAD =           0.0000
               WELLS =           0.0000                 WELLS =           0.0000
       RIVER LEAKAGE =     1142747.7500         RIVER LEAKAGE =        7119.9219
            RECHARGE =       26934.3008              RECHARGE =         564.4509

            TOTAL IN =     1169682.0000              TOTAL IN =        7684.3726

          OUT:                                     OUT:
          ----                                     ----
             STORAGE =     1160032.3750               STORAGE =        7487.7871
       CONSTANT HEAD =           0.0000         CONSTANT HEAD =           0.0000
               WELLS =        9529.1367                 WELLS =         198.4721
       RIVER LEAKAGE =         204.2491         RIVER LEAKAGE =           0.0000
            RECHARGE =           0.0000              RECHARGE =           0.0000

           TOTAL OUT =     1169765.7500             TOTAL OUT =        7686.2593

            IN - OUT =         -83.7500              IN - OUT =          -1.8867

 PERCENT DISCREPANCY =          -0.01     PERCENT DISCREPANCY =          -0.02






         TIME SUMMARY AT END OF TIME STEP   47 IN STRESS PERIOD    2
                    SECONDS     MINUTES      HOURS       DAYS        YEARS
                    -----------------------------------------------------------
   TIME STEP LENGTH  86400.      1440.0      24.000      1.0000     2.73785E-03
 STRESS PERIOD TIME 4.06080E+06  67680.      1128.0      47.000     0.12868    
         TOTAL TIME 4.14720E+06  69120.      1152.0      48.000     0.13142    
1

 SOLVING FOR HEAD 

    ------------------------------------------------
       NWT REQUIRED            3 OUTER ITERATIONS 
       AND A TOTAL OF          3 INNER ITERATIONS.
    ------------------------------------------------

 OUTPUT CONTROL FOR STRESS PERIOD    2   TIME STEP   48
    SAVE HEAD FOR ALL LAYERS
    SAVE DRAWDOWN FOR ALL LAYERS
    SAVE BUDGET
    PRINT HEAD FOR ALL LAYERS
    PRINT BUDGET
1
              HEAD IN LAYER   1 AT END OF TIME STEP  48 IN STRESS PERIOD    2
  ---------------------------------------------------------------------------

            1           2           3           4           5           6           7           8           9          10
           11          12          13          14          15          16          17          18          19          20
 ........................................................................................................................
   1    0.000       0.000       0.000       0.000       0.000       7.297       7.286       7.312       7.333       7.346    
        7.352       7.378       7.640       8.350       7.634       7.369       7.357       7.367       0.000       0.000    
   2    0.000       0.000       0.000       0.000       7.324       7.325       7.285       7.340       7.354       7.365    
        7.370       7.388       7.595       8.355       7.580       7.347       7.350       7.366       0.000       0.000    
   3    0.000       0.000       0.000       7.355       7.387       7.551       7.610       7.587       7.545       7.544    
        7.543       7.533       7.571       8.361       7.507       7.287       7.342       7.367       0.000       0.000    
   4    0.000       0.000       7.445       7.502       7.680       8.352       8.344       8.350       8.359       8.357    
        8.355       8.332       7.804       8.368       7.515       7.350       7.362       7.380       0.000       0.000    
   5    0.000       0.000       8.012       8.250       8.369       8.339       7.729       7.601       7.564       7.567    
        7.672       8.350       8.368       8.325       7.504       7.376       7.382       7.399       7.416       0.000    
   6    0.000       8.372       8.372       8.362       8.149       7.613       7.431       7.402       7.394       7.390    
        7.409       7.540       7.559       7.535       7.399       7.382       7.391       7.404       7.418       0.000    
   7    0.000       7.572       7.577       7.568       7.501       7.418       7.395       7.391       7.384       7.374    
        7.366       7.383       7.392       7.393       7.382       7.384       7.388       7.395       0.000       0.000    
   8    0.000       7.404       7.416       7.419       7.414       7.409       7.407       7.401       7.389       7.369    
        7.346       7.362       7.374       7.380       7.380       7.376       7.372       7.379       0.000       0.000    
   9    0.000       0.000       7.417       7.419       7.421       7.421       7.418       7.410       7.392       7.359    
        7.288       7.349       7.372       7.379       7.374       7.357       7.336       7.359       7.377       7.389    
  10    0.000       0.000       7.427       7.428       7.430       7.429       7.425       7.414       7.396       7.369    
        7.339       7.358       7.373       7.377       7.366       7.331       7.253       7.333       7.370       7.387    

 HEAD WILL BE SAVED ON UNIT   51 AT END OF TIME STEP   48, STRESS PERIOD    2

 DRAWDOWN WILL BE SAVED ON UNIT   52 AT END OF TIME STEP   48, STRESS PERIOD    2
1
  VOLUMETRIC BUDGET FOR ENTIRE MODEL AT END OF TIME STEP   48, STRESS PERIOD   2
  ------------------------------------------------------------------------------

     CUMULATIVE VOLUMES      L**3       RATES FOR THIS TIME STEP      L**3/T
     ------------------                 ------------------------

           IN:                                      IN:
           ---                                      ---
             STORAGE =           0.0000               STORAGE =           0.0000
       CONSTANT HEAD =           0.0000         CONSTANT HEAD =           0.0000
               WELLS =           0.0000                 WELLS =           0.0000
       RIVER LEAKAGE =     1149806.5000         RIVER LEAKAGE =        7058.6953
            RECHARGE =       27498.7520              RECHARGE =         564.4509

            TOTAL IN =     1177305.2500              TOTAL IN =        7623.1460

          OUT:                                     OUT:
          ----                                     ----
             STORAGE =     1167458.8750               STORAGE =        7426.5449
       CONSTANT HEAD =           0.0000         CONSTANT HEAD =           0.0000
               WELLS =        9727.6084                 WELLS =         198.4721
       RIVER LEAKAGE =         204.2491         RIVER LEAKAGE =           0.0000
            RECHARGE =           0.0000              RECHARGE =           0.0000

           TOTAL OUT =     1177390.7500             TOTAL OUT =        7625.0171

            IN - OUT =         -85.5000              IN - OUT =          -1.8711

 PERCENT DISCREPANCY =          -0.01     PERCENT DISCREPANCY =          -0.02






         TIME SUMMARY AT END OF TIME STEP   48 IN STRESS PERIOD    2
                    SECONDS     MINUTES      HOURS       DAYS        YEARS
                    -----------------------------------------------------------
   TIME STEP LENGTH  86400.      1440.0      24.000      1.0000     2.73785E-03
 STRESS PERIOD TIME 4.14720E+06  69120.      1152.0      48.000     0.13142    
         TOTAL TIME 4.23360E+06  70560.      1176.0      49.000     0.13415    
1

 SOLVING FOR HEAD 

    ------------------------------------------------
       NWT REQUIRED            3 OUTER ITERATIONS 
       AND A TOTAL OF          3 INNER ITERATIONS.
    ------------------------------------------------

 OUTPUT CONTROL FOR STRESS PERIOD    2   TIME STEP   49
    SAVE HEAD FOR ALL LAYERS
    SAVE DRAWDOWN FOR ALL LAYERS
    SAVE BUDGET
    PRINT HEAD FOR ALL LAYERS
    PRINT BUDGET
1
              HEAD IN LAYER   1 AT END OF TIME STEP  49 IN STRESS PERIOD    2
  ---------------------------------------------------------------------------

            1           2           3           4           5           6           7           8           9          10
           11          12          13          14          15          16          17          18          19          20
 ........................................................................................................................
   1    0.000       0.000       0.000       0.000       0.000       7.298       7.286       7.312       7.333       7.346    
        7.353       7.380       7.645       8.351       7.639       7.370       7.357       7.367       0.000       0.000    
   2    0.000       0.000       0.000       0.000       7.324       7.327       7.287       7.342       7.356       7.366    
        7.371       7.390       7.599       8.355       7.585       7.348       7.350       7.366       0.000       0.000    
   3    0.000       0.000       0.000       7.356       7.389       7.555       7.615       7.591       7.549       7.548    
        7.546       7.537       7.576       8.361       7.511       7.288       7.342       7.367       0.000       0.000    
   4    0.000       0.000       7.449       7.506       7.685       8.352       8.344       8.350       8.359       8.357    
        8.355       8.333       7.811       8.368       7.518       7.351       7.362       7.380       0.000       0.000    
   5    0.000       0.000       8.019       8.253       8.369       8.340       7.735       7.605       7.568       7.571    
        7.677       8.350       8.368       8.326       7.507       7.377       7.382       7.399       7.416       0.000    
   6    0.000       8.372       8.372       8.363       8.153       7.618       7.434       7.403       7.395       7.391    
        7.411       7.543       7.563       7.538       7.400       7.382       7.392       7.404       7.418       0.000    
   7    0.000       7.576       7.581       7.572       7.505       7.420       7.396       7.391       7.384       7.374    
        7.367       7.384       7.393       7.393       7.383       7.384       7.388       7.396       0.000       0.000    
   8    0.000       7.405       7.417       7.420       7.414       7.409       7.407       7.402       7.389       7.369    
        7.346       7.362       7.375       7.381       7.380       7.376       7.372       7.379       0.000       0.000    
   9    0.000       0.000       7.417       7.419       7.421       7.421       7.418       7.410       7.392       7.359    
        7.288       7.349       7.372       7.379       7.374       7.357       7.336       7.359       7.377       7.389    
  10    0.000       0.000       7.427       7.428       7.430       7.429       7.425       7.414       7.396       7.369    
        7.339       7.358       7.373       7.377       7.366       7.331       7.253       7.333       7.370       7.387    

 HEAD WILL BE SAVED ON UNIT   51 AT END OF TIME STEP   49, STRESS PERIOD    2

 DRAWDOWN WILL BE SAVED ON UNIT   52 AT END OF TIME STEP   49, STRESS PERIOD    2
1
  VOLUMETRIC BUDGET FOR ENTIRE MODEL AT END OF TIME STEP   49, STRESS PERIOD   2
  ------------------------------------------------------------------------------

     CUMULATIVE VOLUMES      L**3       RATES FOR THIS TIME STEP      L**3/T
     ------------------                 ------------------------

           IN:                                      IN:
           ---                                      ---
             STORAGE =           0.0000               STORAGE =           0.0000
       CONSTANT HEAD =           0.0000         CONSTANT HEAD =           0.0000
               WELLS =           0.0000                 WELLS =           0.0000
       RIVER LEAKAGE =     1156805.7500         RIVER LEAKAGE =        6999.2031
            RECHARGE =       28063.2031              RECHARGE =         564.4509

            TOTAL IN =     1184869.0000              TOTAL IN =        7563.6538

          OUT:                                     OUT:
          ----                                     ----
             STORAGE =     1174825.8750               STORAGE =        7367.0376
       CONSTANT HEAD =           0.0000         CONSTANT HEAD =           0.0000
               WELLS =        9926.0801                 WELLS =         198.4721
       RIVER LEAKAGE =         204.2491         RIVER LEAKAGE =           0.0000
            RECHARGE =           0.0000              RECHARGE =           0.0000

           TOTAL OUT =     1184956.2500             TOTAL OUT =        7565.5098

            IN - OUT =         -87.2500              IN - OUT =          -1.8560

 PERCENT DISCREPANCY =          -0.01     PERCENT DISCREPANCY =          -0.02






         TIME SUMMARY AT END OF TIME STEP   49 IN STRESS PERIOD    2
                    SECONDS     MINUTES      HOURS       DAYS        YEARS
                    -----------------------------------------------------------
   TIME STEP LENGTH  86400.      1440.0      24.000      1.0000     2.73785E-03
 STRESS PERIOD TIME 4.23360E+06  70560.      1176.0      49.000     0.13415    
         TOTAL TIME 4.32000E+06  72000.      1200.0      50.000     0.13689    
1

 SOLVING FOR HEAD 

    ------------------------------------------------
       NWT REQUIRED            3 OUTER ITERATIONS 
       AND A TOTAL OF          3 INNER ITERATIONS.
    ------------------------------------------------

 OUTPUT CONTROL FOR STRESS PERIOD    2   TIME STEP   50
    SAVE HEAD FOR ALL LAYERS
    SAVE DRAWDOWN FOR ALL LAYERS
    SAVE BUDGET
    PRINT HEAD FOR ALL LAYERS
    PRINT BUDGET
1
              HEAD IN LAYER   1 AT END OF TIME STEP  50 IN STRESS PERIOD    2
  ---------------------------------------------------------------------------

            1           2           3           4           5           6           7           8           9          10
           11          12          13          14          15          16          17          18          19          20
 ........................................................................................................................
   1    0.000       0.000       0.000       0.000       0.000       7.298       7.287       7.312       7.333       7.346    
        7.353       7.381       7.650       8.351       7.644       7.372       7.357       7.367       0.000       0.000    
   2    0.000       0.000       0.000       0.000       7.325       7.328       7.289       7.343       7.357       7.367    
        7.372       7.392       7.604       8.356       7.589       7.349       7.350       7.366       0.000       0.000    
   3    0.000       0.000       0.000       7.357       7.391       7.559       7.620       7.596       7.553       7.552    
        7.550       7.541       7.581       8.361       7.514       7.289       7.342       7.367       0.000       0.000    
   4    0.000       0.000       7.452       7.511       7.690       8.353       8.344       8.350       8.359       8.357    
        8.355       8.333       7.818       8.368       7.521       7.352       7.362       7.380       0.000       0.000    
   5    0.000       0.000       8.026       8.256       8.369       8.340       7.740       7.610       7.572       7.575    
        7.682       8.350       8.368       8.326       7.509       7.378       7.382       7.399       7.416       0.000    
   6    0.000       8.372       8.372       8.363       8.157       7.623       7.436       7.404       7.396       7.393    
        7.413       7.546       7.566       7.541       7.402       7.382       7.392       7.404       7.418       0.000    
   7    0.000       7.579       7.585       7.575       7.508       7.421       7.396       7.391       7.384       7.374    
        7.367       7.385       7.393       7.394       7.383       7.384       7.388       7.396       0.000       0.000    
   8    0.000       7.407       7.418       7.421       7.415       7.409       7.407       7.402       7.389       7.369    
        7.346       7.362       7.375       7.381       7.380       7.376       7.372       7.379       0.000       0.000    
   9    0.000       0.000       7.417       7.419       7.421       7.421       7.418       7.410       7.392       7.359    
        7.289       7.349       7.372       7.379       7.374       7.357       7.336       7.359       7.377       7.389    
  10    0.000       0.000       7.427       7.428       7.430       7.429       7.425       7.414       7.396       7.369    
        7.339       7.358       7.373       7.377       7.366       7.331       7.253       7.333       7.370       7.387    

 HEAD WILL BE SAVED ON UNIT   51 AT END OF TIME STEP   50, STRESS PERIOD    2

 DRAWDOWN WILL BE SAVED ON UNIT   52 AT END OF TIME STEP   50, STRESS PERIOD    2
1
  VOLUMETRIC BUDGET FOR ENTIRE MODEL AT END OF TIME STEP   50, STRESS PERIOD   2
  ------------------------------------------------------------------------------

     CUMULATIVE VOLUMES      L**3       RATES FOR THIS TIME STEP      L**3/T
     ------------------                 ------------------------

           IN:                                      IN:
           ---                                      ---
             STORAGE =           0.0000               STORAGE =           0.0000
       CONSTANT HEAD =           0.0000         CONSTANT HEAD =           0.0000
               WELLS =           0.0000                 WELLS =           0.0000
       RIVER LEAKAGE =     1163747.1250         RIVER LEAKAGE =        6941.3535
            RECHARGE =       28627.6543              RECHARGE =         564.4509

            TOTAL IN =     1192374.7500              TOTAL IN =        7505.8042

          OUT:                                     OUT:
          ----                                     ----
             STORAGE =     1182135.0000               STORAGE =        7309.1733
       CONSTANT HEAD =           0.0000         CONSTANT HEAD =           0.0000
               WELLS =       10124.5518                 WELLS =         198.4721
       RIVER LEAKAGE =         204.2491         RIVER LEAKAGE =           0.0000
            RECHARGE =           0.0000              RECHARGE =           0.0000

           TOTAL OUT =     1192463.7500             TOTAL OUT =        7507.6455

            IN - OUT =         -89.0000              IN - OUT =          -1.8413

 PERCENT DISCREPANCY =          -0.01     PERCENT DISCREPANCY =          -0.02






         TIME SUMMARY AT END OF TIME STEP   50 IN STRESS PERIOD    2
                    SECONDS     MINUTES      HOURS       DAYS        YEARS
                    -----------------------------------------------------------
   TIME STEP LENGTH  86400.      1440.0      24.000      1.0000     2.73785E-03
 STRESS PERIOD TIME 4.32000E+06  72000.      1200.0      50.000     0.13689    
         TOTAL TIME 4.40640E+06  73440.      1224.0      51.000     0.13963    
1

 SOLVING FOR HEAD 

    ------------------------------------------------
       NWT REQUIRED            3 OUTER ITERATIONS 
       AND A TOTAL OF          3 INNER ITERATIONS.
    ------------------------------------------------

 OUTPUT CONTROL FOR STRESS PERIOD    2   TIME STEP   51
    SAVE HEAD FOR ALL LAYERS
    SAVE DRAWDOWN FOR ALL LAYERS
    SAVE BUDGET
    PRINT HEAD FOR ALL LAYERS
    PRINT BUDGET
1
              HEAD IN LAYER   1 AT END OF TIME STEP  51 IN STRESS PERIOD    2
  ---------------------------------------------------------------------------

            1           2           3           4           5           6           7           8           9          10
           11          12          13          14          15          16          17          18          19          20
 ........................................................................................................................
   1    0.000       0.000       0.000       0.000       0.000       7.298       7.287       7.313       7.333       7.346    
        7.353       7.382       7.654       8.351       7.648       7.373       7.357       7.367       0.000       0.000    
   2    0.000       0.000       0.000       0.000       7.325       7.329       7.290       7.345       7.358       7.368    
        7.373       7.393       7.608       8.356       7.593       7.350       7.350       7.366       0.000       0.000    
   3    0.000       0.000       0.000       7.358       7.393       7.562       7.624       7.600       7.557       7.555    
        7.554       7.546       7.586       8.362       7.518       7.290       7.342       7.367       0.000       0.000    
   4    0.000       0.000       7.456       7.515       7.695       8.353       8.344       8.350       8.359       8.357    
        8.356       8.334       7.825       8.368       7.525       7.352       7.362       7.380       0.000       0.000    
   5    0.000       0.000       8.032       8.259       8.369       8.341       7.746       7.614       7.576       7.579    
        7.687       8.350       8.368       8.326       7.512       7.378       7.382       7.399       7.416       0.000    
   6    0.000       8.372       8.372       8.363       8.161       7.628       7.439       7.406       7.397       7.394    
        7.415       7.550       7.570       7.545       7.403       7.382       7.392       7.404       7.418       0.000    
   7    0.000       7.583       7.589       7.579       7.511       7.423       7.397       7.392       7.385       7.374    
        7.367       7.386       7.394       7.395       7.383       7.384       7.388       7.396       0.000       0.000    
   8    0.000       7.408       7.419       7.422       7.416       7.409       7.407       7.402       7.389       7.369    
        7.346       7.362       7.375       7.381       7.380       7.376       7.372       7.379       0.000       0.000    
   9    0.000       0.000       7.417       7.420       7.421       7.421       7.419       7.410       7.392       7.359    
        7.289       7.349       7.372       7.379       7.374       7.357       7.336       7.359       7.377       7.389    
  10    0.000       0.000       7.427       7.428       7.430       7.429       7.425       7.414       7.396       7.369    
        7.339       7.358       7.373       7.377       7.366       7.331       7.253       7.333       7.370       7.387    

 HEAD WILL BE SAVED ON UNIT   51 AT END OF TIME STEP   51, STRESS PERIOD    2

 DRAWDOWN WILL BE SAVED ON UNIT   52 AT END OF TIME STEP   51, STRESS PERIOD    2
1
  VOLUMETRIC BUDGET FOR ENTIRE MODEL AT END OF TIME STEP   51, STRESS PERIOD   2
  ------------------------------------------------------------------------------

     CUMULATIVE VOLUMES      L**3       RATES FOR THIS TIME STEP      L**3/T
     ------------------                 ------------------------

           IN:                                      IN:
           ---                                      ---
             STORAGE =           0.0000               STORAGE =           0.0000
       CONSTANT HEAD =           0.0000         CONSTANT HEAD =           0.0000
               WELLS =           0.0000                 WELLS =           0.0000
       RIVER LEAKAGE =     1170632.1250         RIVER LEAKAGE =        6885.0352
            RECHARGE =       29192.1055              RECHARGE =         564.4509

            TOTAL IN =     1199824.2500              TOTAL IN =        7449.4858

          OUT:                                     OUT:
          ----                                     ----
             STORAGE =     1189387.8750               STORAGE =        7252.8403
       CONSTANT HEAD =           0.0000         CONSTANT HEAD =           0.0000
               WELLS =       10323.0234                 WELLS =         198.4721
       RIVER LEAKAGE =         204.2491         RIVER LEAKAGE =           0.0000
            RECHARGE =           0.0000              RECHARGE =           0.0000

           TOTAL OUT =     1199915.1250             TOTAL OUT =        7451.3125

            IN - OUT =         -90.8750              IN - OUT =          -1.8267

 PERCENT DISCREPANCY =          -0.01     PERCENT DISCREPANCY =          -0.02






         TIME SUMMARY AT END OF TIME STEP   51 IN STRESS PERIOD    2
                    SECONDS     MINUTES      HOURS       DAYS        YEARS
                    -----------------------------------------------------------
   TIME STEP LENGTH  86400.      1440.0      24.000      1.0000     2.73785E-03
 STRESS PERIOD TIME 4.40640E+06  73440.      1224.0      51.000     0.13963    
         TOTAL TIME 4.49280E+06  74880.      1248.0      52.000     0.14237    
1

 SOLVING FOR HEAD 

    ------------------------------------------------
       NWT REQUIRED            3 OUTER ITERATIONS 
       AND A TOTAL OF          3 INNER ITERATIONS.
    ------------------------------------------------

 OUTPUT CONTROL FOR STRESS PERIOD    2   TIME STEP   52
    SAVE HEAD FOR ALL LAYERS
    SAVE DRAWDOWN FOR ALL LAYERS
    SAVE BUDGET
    PRINT HEAD FOR ALL LAYERS
    PRINT BUDGET
1
              HEAD IN LAYER   1 AT END OF TIME STEP  52 IN STRESS PERIOD    2
  ---------------------------------------------------------------------------

            1           2           3           4           5           6           7           8           9          10
           11          12          13          14          15          16          17          18          19          20
 ........................................................................................................................
   1    0.000       0.000       0.000       0.000       0.000       7.298       7.287       7.313       7.334       7.347    
        7.353       7.384       7.659       8.351       7.653       7.374       7.357       7.367       0.000       0.000    
   2    0.000       0.000       0.000       0.000       7.326       7.330       7.292       7.346       7.359       7.369    
        7.374       7.395       7.613       8.356       7.598       7.351       7.351       7.366       0.000       0.000    
   3    0.000       0.000       0.000       7.360       7.396       7.566       7.629       7.604       7.560       7.559    
        7.557       7.550       7.591       8.362       7.521       7.291       7.342       7.367       0.000       0.000    
   4    0.000       0.000       7.460       7.519       7.700       8.353       8.345       8.350       8.359       8.357    
        8.356       8.334       7.832       8.369       7.528       7.353       7.362       7.380       0.000       0.000    
   5    0.000       0.000       8.038       8.261       8.370       8.341       7.752       7.619       7.579       7.584    
        7.692       8.351       8.368       8.327       7.515       7.379       7.382       7.399       7.416       0.000    
   6    0.000       8.372       8.372       8.363       8.164       7.633       7.441       7.407       7.398       7.395    
        7.417       7.553       7.573       7.548       7.404       7.383       7.392       7.404       7.418       0.000    
   7    0.000       7.587       7.592       7.582       7.514       7.424       7.397       7.392       7.385       7.374    
        7.368       7.387       7.395       7.396       7.383       7.384       7.388       7.396       0.000       0.000    
   8    0.000       7.409       7.420       7.423       7.417       7.410       7.407       7.402       7.389       7.369    
        7.346       7.362       7.375       7.381       7.380       7.376       7.372       7.380       0.000       0.000    
   9    0.000       0.000       7.417       7.420       7.421       7.421       7.419       7.410       7.392       7.359    
        7.289       7.349       7.372       7.379       7.374       7.357       7.336       7.359       7.377       7.389    
  10    0.000       0.000       7.427       7.428       7.430       7.429       7.425       7.414       7.396       7.369    
        7.339       7.358       7.373       7.377       7.366       7.331       7.253       7.333       7.370       7.387    

 HEAD WILL BE SAVED ON UNIT   51 AT END OF TIME STEP   52, STRESS PERIOD    2

 DRAWDOWN WILL BE SAVED ON UNIT   52 AT END OF TIME STEP   52, STRESS PERIOD    2
1
  VOLUMETRIC BUDGET FOR ENTIRE MODEL AT END OF TIME STEP   52, STRESS PERIOD   2
  ------------------------------------------------------------------------------

     CUMULATIVE VOLUMES      L**3       RATES FOR THIS TIME STEP      L**3/T
     ------------------                 ------------------------

           IN:                                      IN:
           ---                                      ---
             STORAGE =           0.0000               STORAGE =           0.0000
       CONSTANT HEAD =           0.0000         CONSTANT HEAD =           0.0000
               WELLS =           0.0000                 WELLS =           0.0000
       RIVER LEAKAGE =     1177462.2500         RIVER LEAKAGE =        6830.1514
            RECHARGE =       29756.5566              RECHARGE =         564.4509

            TOTAL IN =     1207218.7500              TOTAL IN =        7394.6021

          OUT:                                     OUT:
          ----                                     ----
             STORAGE =     1196585.8750               STORAGE =        7197.9429
       CONSTANT HEAD =           0.0000         CONSTANT HEAD =           0.0000
               WELLS =       10521.4951                 WELLS =         198.4721
       RIVER LEAKAGE =         204.2491         RIVER LEAKAGE =           0.0000
            RECHARGE =           0.0000              RECHARGE =           0.0000

           TOTAL OUT =     1207311.6250             TOTAL OUT =        7396.4150

            IN - OUT =         -92.8750              IN - OUT =          -1.8130

 PERCENT DISCREPANCY =          -0.01     PERCENT DISCREPANCY =          -0.02






         TIME SUMMARY AT END OF TIME STEP   52 IN STRESS PERIOD    2
                    SECONDS     MINUTES      HOURS       DAYS        YEARS
                    -----------------------------------------------------------
   TIME STEP LENGTH  86400.      1440.0      24.000      1.0000     2.73785E-03
 STRESS PERIOD TIME 4.49280E+06  74880.      1248.0      52.000     0.14237    
         TOTAL TIME 4.57920E+06  76320.      1272.0      53.000     0.14511    
1

 SOLVING FOR HEAD 

    ------------------------------------------------
       NWT REQUIRED            3 OUTER ITERATIONS 
       AND A TOTAL OF          3 INNER ITERATIONS.
    ------------------------------------------------

 OUTPUT CONTROL FOR STRESS PERIOD    2   TIME STEP   53
    SAVE HEAD FOR ALL LAYERS
    SAVE DRAWDOWN FOR ALL LAYERS
    SAVE BUDGET
    PRINT HEAD FOR ALL LAYERS
    PRINT BUDGET
1
              HEAD IN LAYER   1 AT END OF TIME STEP  53 IN STRESS PERIOD    2
  ---------------------------------------------------------------------------

            1           2           3           4           5           6           7           8           9          10
           11          12          13          14          15          16          17          18          19          20
 ........................................................................................................................
   1    0.000       0.000       0.000       0.000       0.000       7.298       7.288       7.313       7.334       7.347    
        7.354       7.385       7.664       8.351       7.658       7.375       7.358       7.367       0.000       0.000    
   2    0.000       0.000       0.000       0.000       7.326       7.331       7.294       7.348       7.360       7.370    
        7.376       7.397       7.617       8.356       7.602       7.352       7.351       7.366       0.000       0.000    
   3    0.000       0.000       0.000       7.361       7.398       7.570       7.633       7.609       7.564       7.562    
        7.561       7.553       7.597       8.362       7.525       7.291       7.342       7.367       0.000       0.000    
   4    0.000       0.000       7.464       7.523       7.705       8.353       8.345       8.351       8.360       8.358    
        8.356       8.335       7.838       8.369       7.531       7.354       7.362       7.380       0.000       0.000    
   5    0.000       0.000       8.044       8.264       8.370       8.341       7.757       7.623       7.583       7.587    
        7.697       8.351       8.368       8.327       7.518       7.379       7.382       7.399       7.416       0.000    
   6    0.000       8.372       8.372       8.363       8.168       7.637       7.444       7.409       7.400       7.396    
        7.419       7.556       7.577       7.551       7.405       7.383       7.392       7.404       7.418       0.000    
   7    0.000       7.591       7.596       7.586       7.518       7.426       7.398       7.392       7.385       7.375    
        7.368       7.388       7.396       7.397       7.384       7.384       7.388       7.396       0.000       0.000    
   8    0.000       7.410       7.421       7.424       7.417       7.410       7.407       7.402       7.390       7.369    
        7.346       7.362       7.375       7.381       7.380       7.376       7.372       7.380       0.000       0.000    
   9    0.000       0.000       7.418       7.420       7.421       7.421       7.419       7.410       7.392       7.359    
        7.289       7.349       7.372       7.379       7.374       7.357       7.336       7.359       7.377       7.389    
  10    0.000       0.000       7.427       7.428       7.430       7.429       7.425       7.414       7.396       7.369    
        7.339       7.358       7.373       7.377       7.366       7.331       7.253       7.333       7.370       7.387    

 HEAD WILL BE SAVED ON UNIT   51 AT END OF TIME STEP   53, STRESS PERIOD    2

 DRAWDOWN WILL BE SAVED ON UNIT   52 AT END OF TIME STEP   53, STRESS PERIOD    2
1
  VOLUMETRIC BUDGET FOR ENTIRE MODEL AT END OF TIME STEP   53, STRESS PERIOD   2
  ------------------------------------------------------------------------------

     CUMULATIVE VOLUMES      L**3       RATES FOR THIS TIME STEP      L**3/T
     ------------------                 ------------------------

           IN:                                      IN:
           ---                                      ---
             STORAGE =           0.0000               STORAGE =           0.0000
       CONSTANT HEAD =           0.0000         CONSTANT HEAD =           0.0000
               WELLS =           0.0000                 WELLS =           0.0000
       RIVER LEAKAGE =     1184238.8750         RIVER LEAKAGE =        6776.6313
            RECHARGE =       30321.0078              RECHARGE =         564.4509

            TOTAL IN =     1214559.8750              TOTAL IN =        7341.0820

          OUT:                                     OUT:
          ----                                     ----
             STORAGE =     1203730.2500               STORAGE =        7144.4087
       CONSTANT HEAD =           0.0000         CONSTANT HEAD =           0.0000
               WELLS =       10719.9668                 WELLS =         198.4721
       RIVER LEAKAGE =         204.2491         RIVER LEAKAGE =           0.0000
            RECHARGE =           0.0000              RECHARGE =           0.0000

           TOTAL OUT =     1214654.5000             TOTAL OUT =        7342.8809

            IN - OUT =         -94.6250              IN - OUT =          -1.7988

 PERCENT DISCREPANCY =          -0.01     PERCENT DISCREPANCY =          -0.02






         TIME SUMMARY AT END OF TIME STEP   53 IN STRESS PERIOD    2
                    SECONDS     MINUTES      HOURS       DAYS        YEARS
                    -----------------------------------------------------------
   TIME STEP LENGTH  86400.      1440.0      24.000      1.0000     2.73785E-03
 STRESS PERIOD TIME 4.57920E+06  76320.      1272.0      53.000     0.14511    
         TOTAL TIME 4.66560E+06  77760.      1296.0      54.000     0.14784    
1

 SOLVING FOR HEAD 

    ------------------------------------------------
       NWT REQUIRED            3 OUTER ITERATIONS 
       AND A TOTAL OF          3 INNER ITERATIONS.
    ------------------------------------------------

 OUTPUT CONTROL FOR STRESS PERIOD    2   TIME STEP   54
    SAVE HEAD FOR ALL LAYERS
    SAVE DRAWDOWN FOR ALL LAYERS
    SAVE BUDGET
    PRINT HEAD FOR ALL LAYERS
    PRINT BUDGET
1
              HEAD IN LAYER   1 AT END OF TIME STEP  54 IN STRESS PERIOD    2
  ---------------------------------------------------------------------------

            1           2           3           4           5           6           7           8           9          10
           11          12          13          14          15          16          17          18          19          20
 ........................................................................................................................
   1    0.000       0.000       0.000       0.000       0.000       7.299       7.288       7.313       7.334       7.347    
        7.354       7.386       7.669       8.352       7.662       7.377       7.358       7.367       0.000       0.000    
   2    0.000       0.000       0.000       0.000       7.327       7.333       7.295       7.349       7.361       7.371    
        7.377       7.399       7.622       8.356       7.606       7.353       7.351       7.366       0.000       0.000    
   3    0.000       0.000       0.000       7.362       7.400       7.574       7.637       7.613       7.568       7.566    
        7.565       7.557       7.602       8.362       7.528       7.292       7.342       7.367       0.000       0.000    
   4    0.000       0.000       7.468       7.527       7.710       8.353       8.345       8.351       8.360       8.358    
        8.356       8.335       7.845       8.369       7.534       7.355       7.363       7.380       0.000       0.000    
   5    0.000       0.000       8.050       8.266       8.370       8.342       7.762       7.627       7.587       7.591    
        7.702       8.351       8.368       8.327       7.521       7.380       7.382       7.399       7.416       0.000    
   6    0.000       8.372       8.373       8.364       8.171       7.642       7.446       7.410       7.401       7.397    
        7.421       7.559       7.580       7.554       7.406       7.383       7.392       7.404       7.418       0.000    
   7    0.000       7.594       7.599       7.589       7.521       7.428       7.398       7.392       7.385       7.375    
        7.368       7.388       7.397       7.397       7.384       7.384       7.388       7.396       0.000       0.000    
   8    0.000       7.411       7.422       7.425       7.418       7.410       7.407       7.402       7.390       7.370    
        7.347       7.362       7.375       7.381       7.380       7.376       7.372       7.380       0.000       0.000    
   9    0.000       0.000       7.418       7.420       7.421       7.422       7.419       7.410       7.392       7.359    
        7.289       7.349       7.372       7.379       7.374       7.357       7.336       7.359       7.377       7.389    
  10    0.000       0.000       7.427       7.429       7.430       7.429       7.425       7.414       7.396       7.369    
        7.340       7.358       7.373       7.377       7.366       7.331       7.253       7.333       7.370       7.387    

 HEAD WILL BE SAVED ON UNIT   51 AT END OF TIME STEP   54, STRESS PERIOD    2

 DRAWDOWN WILL BE SAVED ON UNIT   52 AT END OF TIME STEP   54, STRESS PERIOD    2
1
  VOLUMETRIC BUDGET FOR ENTIRE MODEL AT END OF TIME STEP   54, STRESS PERIOD   2
  ------------------------------------------------------------------------------

     CUMULATIVE VOLUMES      L**3       RATES FOR THIS TIME STEP      L**3/T
     ------------------                 ------------------------

           IN:                                      IN:
           ---                                      ---
             STORAGE =           0.0000               STORAGE =           0.0000
       CONSTANT HEAD =           0.0000         CONSTANT HEAD =           0.0000
               WELLS =           0.0000                 WELLS =           0.0000
       RIVER LEAKAGE =     1190963.2500         RIVER LEAKAGE =        6724.4370
            RECHARGE =       30885.4590              RECHARGE =         564.4509

            TOTAL IN =     1221848.7500              TOTAL IN =        7288.8877

          OUT:                                     OUT:
          ----                                     ----
             STORAGE =     1210822.5000               STORAGE =        7092.2012
       CONSTANT HEAD =           0.0000         CONSTANT HEAD =           0.0000
               WELLS =       10918.4385                 WELLS =         198.4721
       RIVER LEAKAGE =         204.2491         RIVER LEAKAGE =           0.0000
            RECHARGE =           0.0000              RECHARGE =           0.0000

           TOTAL OUT =     1221945.2500             TOTAL OUT =        7290.6733

            IN - OUT =         -96.5000              IN - OUT =          -1.7856

 PERCENT DISCREPANCY =          -0.01     PERCENT DISCREPANCY =          -0.02






         TIME SUMMARY AT END OF TIME STEP   54 IN STRESS PERIOD    2
                    SECONDS     MINUTES      HOURS       DAYS        YEARS
                    -----------------------------------------------------------
   TIME STEP LENGTH  86400.      1440.0      24.000      1.0000     2.73785E-03
 STRESS PERIOD TIME 4.66560E+06  77760.      1296.0      54.000     0.14784    
         TOTAL TIME 4.75200E+06  79200.      1320.0      55.000     0.15058    
1

 SOLVING FOR HEAD 

    ------------------------------------------------
       NWT REQUIRED            3 OUTER ITERATIONS 
       AND A TOTAL OF          3 INNER ITERATIONS.
    ------------------------------------------------

 OUTPUT CONTROL FOR STRESS PERIOD    2   TIME STEP   55
    SAVE HEAD FOR ALL LAYERS
    SAVE DRAWDOWN FOR ALL LAYERS
    SAVE BUDGET
    PRINT HEAD FOR ALL LAYERS
    PRINT BUDGET
1
              HEAD IN LAYER   1 AT END OF TIME STEP  55 IN STRESS PERIOD    2
  ---------------------------------------------------------------------------

            1           2           3           4           5           6           7           8           9          10
           11          12          13          14          15          16          17          18          19          20
 ........................................................................................................................
   1    0.000       0.000       0.000       0.000       0.000       7.299       7.288       7.314       7.334       7.347    
        7.355       7.388       7.673       8.352       7.667       7.378       7.358       7.367       0.000       0.000    
   2    0.000       0.000       0.000       0.000       7.327       7.334       7.297       7.351       7.362       7.372    
        7.378       7.401       7.626       8.356       7.610       7.354       7.351       7.366       0.000       0.000    
   3    0.000       0.000       0.000       7.363       7.402       7.577       7.641       7.617       7.572       7.570    
        7.568       7.561       7.607       8.362       7.532       7.293       7.342       7.367       0.000       0.000    
   4    0.000       0.000       7.471       7.531       7.715       8.354       8.346       8.351       8.360       8.358    
        8.356       8.336       7.852       8.369       7.537       7.355       7.363       7.380       0.000       0.000    
   5    0.000       0.000       8.056       8.268       8.370       8.342       7.768       7.632       7.591       7.595    
        7.707       8.351       8.369       8.328       7.523       7.381       7.382       7.399       7.416       0.000    
   6    0.000       8.372       8.373       8.364       8.174       7.647       7.448       7.411       7.402       7.399    
        7.423       7.562       7.583       7.557       7.408       7.383       7.392       7.404       7.418       0.000    
   7    0.000       7.598       7.603       7.593       7.524       7.429       7.399       7.392       7.385       7.375    
        7.369       7.389       7.398       7.398       7.384       7.384       7.388       7.396       0.000       0.000    
   8    0.000       7.413       7.423       7.426       7.419       7.410       7.407       7.402       7.390       7.370    
        7.347       7.363       7.375       7.381       7.380       7.376       7.372       7.380       0.000       0.000    
   9    0.000       0.000       7.418       7.420       7.422       7.422       7.419       7.410       7.392       7.359    
        7.289       7.349       7.372       7.379       7.374       7.357       7.336       7.359       7.377       7.389    
  10    0.000       0.000       7.427       7.429       7.430       7.429       7.425       7.414       7.396       7.369    
        7.340       7.358       7.373       7.377       7.366       7.331       7.253       7.333       7.370       7.387    

 HEAD WILL BE SAVED ON UNIT   51 AT END OF TIME STEP   55, STRESS PERIOD    2

 DRAWDOWN WILL BE SAVED ON UNIT   52 AT END OF TIME STEP   55, STRESS PERIOD    2
1
  VOLUMETRIC BUDGET FOR ENTIRE MODEL AT END OF TIME STEP   55, STRESS PERIOD   2
  ------------------------------------------------------------------------------

     CUMULATIVE VOLUMES      L**3       RATES FOR THIS TIME STEP      L**3/T
     ------------------                 ------------------------

           IN:                                      IN:
           ---                                      ---
             STORAGE =           0.0000               STORAGE =           0.0000
       CONSTANT HEAD =           0.0000         CONSTANT HEAD =           0.0000
               WELLS =           0.0000                 WELLS =           0.0000
       RIVER LEAKAGE =     1197636.7500         RIVER LEAKAGE =        6673.4746
            RECHARGE =       31449.9102              RECHARGE =         564.4509

            TOTAL IN =     1229086.6250              TOTAL IN =        7237.9253

          OUT:                                     OUT:
          ----                                     ----
             STORAGE =     1217863.7500               STORAGE =        7041.2256
       CONSTANT HEAD =           0.0000         CONSTANT HEAD =           0.0000
               WELLS =       11116.9102                 WELLS =         198.4721
       RIVER LEAKAGE =         204.2491         RIVER LEAKAGE =           0.0000
            RECHARGE =           0.0000              RECHARGE =           0.0000

           TOTAL OUT =     1229184.8750             TOTAL OUT =        7239.6978

            IN - OUT =         -98.2500              IN - OUT =          -1.7725

 PERCENT DISCREPANCY =          -0.01     PERCENT DISCREPANCY =          -0.02






         TIME SUMMARY AT END OF TIME STEP   55 IN STRESS PERIOD    2
                    SECONDS     MINUTES      HOURS       DAYS        YEARS
                    -----------------------------------------------------------
   TIME STEP LENGTH  86400.      1440.0      24.000      1.0000     2.73785E-03
 STRESS PERIOD TIME 4.75200E+06  79200.      1320.0      55.000     0.15058    
         TOTAL TIME 4.83840E+06  80640.      1344.0      56.000     0.15332    
1

 SOLVING FOR HEAD 

    ------------------------------------------------
       NWT REQUIRED            3 OUTER ITERATIONS 
       AND A TOTAL OF          3 INNER ITERATIONS.
    ------------------------------------------------

 OUTPUT CONTROL FOR STRESS PERIOD    2   TIME STEP   56
    SAVE HEAD FOR ALL LAYERS
    SAVE DRAWDOWN FOR ALL LAYERS
    SAVE BUDGET
    PRINT HEAD FOR ALL LAYERS
    PRINT BUDGET
1
              HEAD IN LAYER   1 AT END OF TIME STEP  56 IN STRESS PERIOD    2
  ---------------------------------------------------------------------------

            1           2           3           4           5           6           7           8           9          10
           11          12          13          14          15          16          17          18          19          20
 ........................................................................................................................
   1    0.000       0.000       0.000       0.000       0.000       7.299       7.289       7.314       7.335       7.347    
        7.355       7.389       7.678       8.352       7.671       7.379       7.358       7.367       0.000       0.000    
   2    0.000       0.000       0.000       0.000       7.328       7.335       7.299       7.352       7.363       7.374    
        7.379       7.403       7.631       8.357       7.614       7.355       7.351       7.366       0.000       0.000    
   3    0.000       0.000       0.000       7.365       7.405       7.581       7.646       7.621       7.575       7.573    
        7.572       7.565       7.612       8.362       7.535       7.294       7.343       7.367       0.000       0.000    
   4    0.000       0.000       7.475       7.535       7.720       8.354       8.346       8.351       8.360       8.358    
        8.357       8.336       7.858       8.369       7.541       7.356       7.363       7.380       0.000       0.000    
   5    0.000       0.000       8.061       8.270       8.370       8.342       7.773       7.636       7.594       7.599    
        7.712       8.351       8.369       8.328       7.526       7.381       7.383       7.399       7.416       0.000    
   6    0.000       8.372       8.373       8.364       8.178       7.651       7.451       7.413       7.403       7.400    
        7.425       7.565       7.587       7.560       7.409       7.383       7.392       7.404       7.418       0.000    
   7    0.000       7.601       7.606       7.596       7.527       7.431       7.400       7.393       7.386       7.375    
        7.369       7.390       7.399       7.399       7.384       7.384       7.388       7.396       0.000       0.000    
   8    0.000       7.414       7.424       7.427       7.419       7.411       7.407       7.402       7.390       7.370    
        7.347       7.363       7.376       7.382       7.380       7.376       7.372       7.380       0.000       0.000    
   9    0.000       0.000       7.418       7.420       7.422       7.422       7.419       7.410       7.392       7.359    
        7.289       7.349       7.372       7.379       7.374       7.357       7.336       7.359       7.377       7.389    
  10    0.000       0.000       7.427       7.429       7.430       7.429       7.425       7.414       7.396       7.369    
        7.340       7.358       7.373       7.377       7.366       7.331       7.253       7.333       7.371       7.387    

 HEAD WILL BE SAVED ON UNIT   51 AT END OF TIME STEP   56, STRESS PERIOD    2

 DRAWDOWN WILL BE SAVED ON UNIT   52 AT END OF TIME STEP   56, STRESS PERIOD    2
1
  VOLUMETRIC BUDGET FOR ENTIRE MODEL AT END OF TIME STEP   56, STRESS PERIOD   2
  ------------------------------------------------------------------------------

     CUMULATIVE VOLUMES      L**3       RATES FOR THIS TIME STEP      L**3/T
     ------------------                 ------------------------

           IN:                                      IN:
           ---                                      ---
             STORAGE =           0.0000               STORAGE =           0.0000
       CONSTANT HEAD =           0.0000         CONSTANT HEAD =           0.0000
               WELLS =           0.0000                 WELLS =           0.0000
       RIVER LEAKAGE =     1204260.3750         RIVER LEAKAGE =        6623.6699
            RECHARGE =       32014.3613              RECHARGE =         564.4509

            TOTAL IN =     1236274.7500              TOTAL IN =        7188.1206

          OUT:                                     OUT:
          ----                                     ----
             STORAGE =     1224855.1250               STORAGE =        6991.4082
       CONSTANT HEAD =           0.0000         CONSTANT HEAD =           0.0000
               WELLS =       11315.3818                 WELLS =         198.4721
       RIVER LEAKAGE =         204.2491         RIVER LEAKAGE =           0.0000
            RECHARGE =           0.0000              RECHARGE =           0.0000

           TOTAL OUT =     1236374.7500             TOTAL OUT =        7189.8804

            IN - OUT =        -100.0000              IN - OUT =          -1.7598

 PERCENT DISCREPANCY =          -0.01     PERCENT DISCREPANCY =          -0.02






         TIME SUMMARY AT END OF TIME STEP   56 IN STRESS PERIOD    2
                    SECONDS     MINUTES      HOURS       DAYS        YEARS
                    -----------------------------------------------------------
   TIME STEP LENGTH  86400.      1440.0      24.000      1.0000     2.73785E-03
 STRESS PERIOD TIME 4.83840E+06  80640.      1344.0      56.000     0.15332    
         TOTAL TIME 4.92480E+06  82080.      1368.0      57.000     0.15606    
1

 SOLVING FOR HEAD 

    ------------------------------------------------
       NWT REQUIRED            3 OUTER ITERATIONS 
       AND A TOTAL OF          3 INNER ITERATIONS.
    ------------------------------------------------

 OUTPUT CONTROL FOR STRESS PERIOD    2   TIME STEP   57
    SAVE HEAD FOR ALL LAYERS
    SAVE DRAWDOWN FOR ALL LAYERS
    SAVE BUDGET
    PRINT HEAD FOR ALL LAYERS
    PRINT BUDGET
1
              HEAD IN LAYER   1 AT END OF TIME STEP  57 IN STRESS PERIOD    2
  ---------------------------------------------------------------------------

            1           2           3           4           5           6           7           8           9          10
           11          12          13          14          15          16          17          18          19          20
 ........................................................................................................................
   1    0.000       0.000       0.000       0.000       0.000       7.299       7.289       7.314       7.335       7.348    
        7.355       7.391       7.682       8.352       7.676       7.380       7.358       7.367       0.000       0.000    
   2    0.000       0.000       0.000       0.000       7.328       7.336       7.300       7.354       7.365       7.375    
        7.380       7.405       7.635       8.357       7.618       7.357       7.351       7.366       0.000       0.000    
   3    0.000       0.000       0.000       7.366       7.407       7.585       7.650       7.625       7.579       7.577    
        7.575       7.569       7.617       8.362       7.539       7.295       7.343       7.368       0.000       0.000    
   4    0.000       0.000       7.479       7.539       7.724       8.354       8.346       8.351       8.360       8.358    
        8.357       8.337       7.864       8.369       7.544       7.357       7.363       7.380       0.000       0.000    
   5    0.000       0.000       8.066       8.272       8.370       8.343       7.778       7.640       7.598       7.603    
        7.716       8.352       8.369       8.328       7.529       7.382       7.383       7.399       7.416       0.000    
   6    0.000       8.372       8.373       8.364       8.180       7.656       7.453       7.414       7.404       7.401    
        7.427       7.568       7.590       7.563       7.410       7.384       7.392       7.404       7.418       0.000    
   7    0.000       7.605       7.610       7.599       7.530       7.432       7.400       7.393       7.386       7.375    
        7.370       7.391       7.400       7.400       7.385       7.384       7.388       7.396       0.000       0.000    
   8    0.000       7.415       7.425       7.428       7.420       7.411       7.408       7.402       7.390       7.370    
        7.347       7.363       7.376       7.382       7.381       7.376       7.372       7.380       0.000       0.000    
   9    0.000       0.000       7.418       7.421       7.422       7.422       7.419       7.410       7.392       7.359    
        7.289       7.349       7.372       7.379       7.374       7.357       7.336       7.359       7.377       7.389    
  10    0.000       0.000       7.427       7.429       7.430       7.429       7.425       7.414       7.396       7.369    
        7.340       7.358       7.374       7.377       7.366       7.331       7.253       7.333       7.371       7.387    

 HEAD WILL BE SAVED ON UNIT   51 AT END OF TIME STEP   57, STRESS PERIOD    2

 DRAWDOWN WILL BE SAVED ON UNIT   52 AT END OF TIME STEP   57, STRESS PERIOD    2
1
  VOLUMETRIC BUDGET FOR ENTIRE MODEL AT END OF TIME STEP   57, STRESS PERIOD   2
  ------------------------------------------------------------------------------

     CUMULATIVE VOLUMES      L**3       RATES FOR THIS TIME STEP      L**3/T
     ------------------                 ------------------------

           IN:                                      IN:
           ---                                      ---
             STORAGE =           0.0000               STORAGE =           0.0000
       CONSTANT HEAD =           0.0000         CONSTANT HEAD =           0.0000
               WELLS =           0.0000                 WELLS =           0.0000
       RIVER LEAKAGE =     1210835.3750         RIVER LEAKAGE =        6574.9907
            RECHARGE =       32578.8125              RECHARGE =         564.4509

            TOTAL IN =     1243414.2500              TOTAL IN =        7139.4414

          OUT:                                     OUT:
          ----                                     ----
             STORAGE =     1231797.8750               STORAGE =        6942.7163
       CONSTANT HEAD =           0.0000         CONSTANT HEAD =           0.0000
               WELLS =       11513.8535                 WELLS =         198.4721
       RIVER LEAKAGE =         204.2491         RIVER LEAKAGE =           0.0000
            RECHARGE =           0.0000              RECHARGE =           0.0000

           TOTAL OUT =     1243516.0000             TOTAL OUT =        7141.1885

            IN - OUT =        -101.7500              IN - OUT =          -1.7471

 PERCENT DISCREPANCY =          -0.01     PERCENT DISCREPANCY =          -0.02






         TIME SUMMARY AT END OF TIME STEP   57 IN STRESS PERIOD    2
                    SECONDS     MINUTES      HOURS       DAYS        YEARS
                    -----------------------------------------------------------
   TIME STEP LENGTH  86400.      1440.0      24.000      1.0000     2.73785E-03
 STRESS PERIOD TIME 4.92480E+06  82080.      1368.0      57.000     0.15606    
         TOTAL TIME 5.01120E+06  83520.      1392.0      58.000     0.15880    
1

 SOLVING FOR HEAD 

    ------------------------------------------------
       NWT REQUIRED            3 OUTER ITERATIONS 
       AND A TOTAL OF          3 INNER ITERATIONS.
    ------------------------------------------------

 OUTPUT CONTROL FOR STRESS PERIOD    2   TIME STEP   58
    SAVE HEAD FOR ALL LAYERS
    SAVE DRAWDOWN FOR ALL LAYERS
    SAVE BUDGET
    PRINT HEAD FOR ALL LAYERS
    PRINT BUDGET
1
              HEAD IN LAYER   1 AT END OF TIME STEP  58 IN STRESS PERIOD    2
  ---------------------------------------------------------------------------

            1           2           3           4           5           6           7           8           9          10
           11          12          13          14          15          16          17          18          19          20
 ........................................................................................................................
   1    0.000       0.000       0.000       0.000       0.000       7.300       7.289       7.315       7.335       7.348    
        7.356       7.392       7.687       8.353       7.680       7.382       7.359       7.367       0.000       0.000    
   2    0.000       0.000       0.000       0.000       7.329       7.338       7.302       7.355       7.366       7.376    
        7.381       7.407       7.639       8.357       7.622       7.358       7.352       7.366       0.000       0.000    
   3    0.000       0.000       0.000       7.367       7.409       7.588       7.654       7.629       7.583       7.580    
        7.579       7.573       7.622       8.362       7.542       7.296       7.343       7.368       0.000       0.000    
   4    0.000       0.000       7.483       7.543       7.729       8.354       8.346       8.352       8.360       8.358    
        8.357       8.337       7.871       8.369       7.547       7.358       7.363       7.381       0.000       0.000    
   5    0.000       0.000       8.072       8.274       8.371       8.343       7.783       7.644       7.602       7.607    
        7.721       8.352       8.369       8.328       7.532       7.383       7.383       7.399       7.417       0.000    
   6    0.000       8.372       8.373       8.364       8.183       7.660       7.456       7.416       7.405       7.402    
        7.429       7.571       7.593       7.566       7.411       7.384       7.392       7.404       7.418       0.000    
   7    0.000       7.608       7.613       7.603       7.534       7.434       7.401       7.393       7.386       7.376    
        7.370       7.392       7.401       7.401       7.385       7.384       7.388       7.396       0.000       0.000    
   8    0.000       7.416       7.426       7.429       7.421       7.411       7.408       7.402       7.390       7.370    
        7.347       7.363       7.376       7.382       7.381       7.376       7.372       7.380       0.000       0.000    
   9    0.000       0.000       7.418       7.421       7.422       7.422       7.419       7.410       7.392       7.359    
        7.289       7.349       7.372       7.379       7.374       7.357       7.336       7.359       7.377       7.389    
  10    0.000       0.000       7.427       7.429       7.430       7.429       7.425       7.415       7.396       7.369    
        7.340       7.358       7.374       7.377       7.366       7.331       7.253       7.333       7.371       7.387    

 HEAD WILL BE SAVED ON UNIT   51 AT END OF TIME STEP   58, STRESS PERIOD    2

 DRAWDOWN WILL BE SAVED ON UNIT   52 AT END OF TIME STEP   58, STRESS PERIOD    2
1
  VOLUMETRIC BUDGET FOR ENTIRE MODEL AT END OF TIME STEP   58, STRESS PERIOD   2
  ------------------------------------------------------------------------------

     CUMULATIVE VOLUMES      L**3       RATES FOR THIS TIME STEP      L**3/T
     ------------------                 ------------------------

           IN:                                      IN:
           ---                                      ---
             STORAGE =           0.0000               STORAGE =           0.0000
       CONSTANT HEAD =           0.0000         CONSTANT HEAD =           0.0000
               WELLS =           0.0000                 WELLS =           0.0000
       RIVER LEAKAGE =     1217362.7500         RIVER LEAKAGE =        6527.3735
            RECHARGE =       33143.2617              RECHARGE =         564.4509

            TOTAL IN =     1250506.0000              TOTAL IN =        7091.8242

          OUT:                                     OUT:
          ----                                     ----
             STORAGE =     1238693.0000               STORAGE =        6895.0869
       CONSTANT HEAD =           0.0000         CONSTANT HEAD =           0.0000
               WELLS =       11712.3252                 WELLS =         198.4721
       RIVER LEAKAGE =         204.2491         RIVER LEAKAGE =           0.0000
            RECHARGE =           0.0000              RECHARGE =           0.0000

           TOTAL OUT =     1250609.6250             TOTAL OUT =        7093.5591

            IN - OUT =        -103.6250              IN - OUT =          -1.7349

 PERCENT DISCREPANCY =          -0.01     PERCENT DISCREPANCY =          -0.02






         TIME SUMMARY AT END OF TIME STEP   58 IN STRESS PERIOD    2
                    SECONDS     MINUTES      HOURS       DAYS        YEARS
                    -----------------------------------------------------------
   TIME STEP LENGTH  86400.      1440.0      24.000      1.0000     2.73785E-03
 STRESS PERIOD TIME 5.01120E+06  83520.      1392.0      58.000     0.15880    
         TOTAL TIME 5.09760E+06  84960.      1416.0      59.000     0.16153    
1

 SOLVING FOR HEAD 

    ------------------------------------------------
       NWT REQUIRED            3 OUTER ITERATIONS 
       AND A TOTAL OF          3 INNER ITERATIONS.
    ------------------------------------------------

 OUTPUT CONTROL FOR STRESS PERIOD    2   TIME STEP   59
    SAVE HEAD FOR ALL LAYERS
    SAVE DRAWDOWN FOR ALL LAYERS
    SAVE BUDGET
    PRINT HEAD FOR ALL LAYERS
    PRINT BUDGET
1
              HEAD IN LAYER   1 AT END OF TIME STEP  59 IN STRESS PERIOD    2
  ---------------------------------------------------------------------------

            1           2           3           4           5           6           7           8           9          10
           11          12          13          14          15          16          17          18          19          20
 ........................................................................................................................
   1    0.000       0.000       0.000       0.000       0.000       7.300       7.290       7.315       7.335       7.348    
        7.356       7.394       7.691       8.353       7.685       7.383       7.359       7.367       0.000       0.000    
   2    0.000       0.000       0.000       0.000       7.330       7.339       7.304       7.357       7.367       7.377    
        7.383       7.409       7.644       8.357       7.626       7.359       7.352       7.366       0.000       0.000    
   3    0.000       0.000       0.000       7.369       7.411       7.592       7.658       7.633       7.586       7.583    
        7.582       7.577       7.627       8.363       7.545       7.297       7.343       7.368       0.000       0.000    
   4    0.000       0.000       7.487       7.547       7.734       8.354       8.347       8.352       8.360       8.358    
        8.357       8.337       7.877       8.369       7.550       7.359       7.363       7.381       0.000       0.000    
   5    0.000       0.000       8.077       8.276       8.371       8.343       7.788       7.648       7.605       7.611    
        7.725       8.352       8.369       8.329       7.534       7.383       7.383       7.399       7.417       0.000    
   6    0.000       8.372       8.373       8.364       8.186       7.664       7.458       7.417       7.406       7.404    
        7.431       7.574       7.596       7.569       7.413       7.384       7.392       7.404       7.418       0.000    
   7    0.000       7.612       7.617       7.606       7.537       7.436       7.401       7.394       7.386       7.376    
        7.371       7.393       7.402       7.402       7.385       7.384       7.388       7.396       0.000       0.000    
   8    0.000       7.418       7.428       7.430       7.422       7.412       7.408       7.402       7.390       7.370    
        7.347       7.363       7.376       7.382       7.381       7.376       7.372       7.380       0.000       0.000    
   9    0.000       0.000       7.419       7.421       7.422       7.422       7.419       7.410       7.392       7.359    
        7.289       7.349       7.372       7.379       7.374       7.358       7.336       7.359       7.377       7.389    
  10    0.000       0.000       7.427       7.429       7.430       7.429       7.425       7.415       7.396       7.369    
        7.340       7.358       7.374       7.377       7.366       7.332       7.253       7.334       7.371       7.387    

 HEAD WILL BE SAVED ON UNIT   51 AT END OF TIME STEP   59, STRESS PERIOD    2

 DRAWDOWN WILL BE SAVED ON UNIT   52 AT END OF TIME STEP   59, STRESS PERIOD    2
1
  VOLUMETRIC BUDGET FOR ENTIRE MODEL AT END OF TIME STEP   59, STRESS PERIOD   2
  ------------------------------------------------------------------------------

     CUMULATIVE VOLUMES      L**3       RATES FOR THIS TIME STEP      L**3/T
     ------------------                 ------------------------

           IN:                                      IN:
           ---                                      ---
             STORAGE =           0.0000               STORAGE =           0.0000
       CONSTANT HEAD =           0.0000         CONSTANT HEAD =           0.0000
               WELLS =           0.0000                 WELLS =           0.0000
       RIVER LEAKAGE =     1223843.5000         RIVER LEAKAGE =        6480.7832
            RECHARGE =       33707.7109              RECHARGE =         564.4509

            TOTAL IN =     1257551.2500              TOTAL IN =        7045.2339

          OUT:                                     OUT:
          ----                                     ----
             STORAGE =     1245541.5000               STORAGE =        6848.4849
       CONSTANT HEAD =           0.0000         CONSTANT HEAD =           0.0000
               WELLS =       11910.7969                 WELLS =         198.4721
       RIVER LEAKAGE =         204.2491         RIVER LEAKAGE =           0.0000
            RECHARGE =           0.0000              RECHARGE =           0.0000

           TOTAL OUT =     1257656.5000             TOTAL OUT =        7046.9570

            IN - OUT =        -105.2500              IN - OUT =          -1.7231

 PERCENT DISCREPANCY =          -0.01     PERCENT DISCREPANCY =          -0.02






         TIME SUMMARY AT END OF TIME STEP   59 IN STRESS PERIOD    2
                    SECONDS     MINUTES      HOURS       DAYS        YEARS
                    -----------------------------------------------------------
   TIME STEP LENGTH  86400.      1440.0      24.000      1.0000     2.73785E-03
 STRESS PERIOD TIME 5.09760E+06  84960.      1416.0      59.000     0.16153    
         TOTAL TIME 5.18400E+06  86400.      1440.0      60.000     0.16427    
1

 SOLVING FOR HEAD 

    ------------------------------------------------
       NWT REQUIRED            3 OUTER ITERATIONS 
       AND A TOTAL OF          3 INNER ITERATIONS.
    ------------------------------------------------

 OUTPUT CONTROL FOR STRESS PERIOD    2   TIME STEP   60
    SAVE HEAD FOR ALL LAYERS
    SAVE DRAWDOWN FOR ALL LAYERS
    SAVE BUDGET
    PRINT HEAD FOR ALL LAYERS
    PRINT BUDGET
1
              HEAD IN LAYER   1 AT END OF TIME STEP  60 IN STRESS PERIOD    2
  ---------------------------------------------------------------------------

            1           2           3           4           5           6           7           8           9          10
           11          12          13          14          15          16          17          18          19          20
 ........................................................................................................................
   1    0.000       0.000       0.000       0.000       0.000       7.300       7.290       7.315       7.336       7.348    
        7.356       7.395       7.695       8.353       7.689       7.384       7.359       7.367       0.000       0.000    
   2    0.000       0.000       0.000       0.000       7.330       7.340       7.306       7.358       7.368       7.378    
        7.384       7.411       7.648       8.357       7.630       7.360       7.352       7.366       0.000       0.000    
   3    0.000       0.000       0.000       7.370       7.414       7.595       7.662       7.637       7.590       7.587    
        7.585       7.581       7.632       8.363       7.549       7.298       7.343       7.368       0.000       0.000    
   4    0.000       0.000       7.491       7.551       7.738       8.355       8.347       8.352       8.360       8.359    
        8.357       8.338       7.883       8.369       7.553       7.360       7.363       7.381       0.000       0.000    
   5    0.000       0.000       8.082       8.278       8.371       8.344       7.793       7.653       7.609       7.614    
        7.730       8.352       8.369       8.329       7.537       7.384       7.383       7.399       7.417       0.000    
   6    0.000       8.372       8.373       8.365       8.189       7.669       7.461       7.419       7.408       7.405    
        7.433       7.577       7.600       7.572       7.414       7.384       7.392       7.404       7.418       0.000    
   7    0.000       7.615       7.620       7.609       7.540       7.437       7.402       7.394       7.386       7.376    
        7.371       7.394       7.403       7.403       7.386       7.384       7.388       7.396       0.000       0.000    
   8    0.000       7.419       7.429       7.431       7.422       7.412       7.408       7.402       7.390       7.370    
        7.347       7.363       7.376       7.382       7.381       7.376       7.372       7.380       0.000       0.000    
   9    0.000       0.000       7.419       7.421       7.422       7.422       7.419       7.410       7.392       7.359    
        7.289       7.349       7.372       7.379       7.374       7.358       7.336       7.359       7.377       7.389    
  10    0.000       0.000       7.427       7.429       7.430       7.429       7.425       7.415       7.396       7.369    
        7.340       7.358       7.374       7.377       7.366       7.332       7.253       7.334       7.371       7.387    

 HEAD WILL BE SAVED ON UNIT   51 AT END OF TIME STEP   60, STRESS PERIOD    2

 DRAWDOWN WILL BE SAVED ON UNIT   52 AT END OF TIME STEP   60, STRESS PERIOD    2
1
  VOLUMETRIC BUDGET FOR ENTIRE MODEL AT END OF TIME STEP   60, STRESS PERIOD   2
  ------------------------------------------------------------------------------

     CUMULATIVE VOLUMES      L**3       RATES FOR THIS TIME STEP      L**3/T
     ------------------                 ------------------------

           IN:                                      IN:
           ---                                      ---
             STORAGE =           0.0000               STORAGE =           0.0000
       CONSTANT HEAD =           0.0000         CONSTANT HEAD =           0.0000
               WELLS =           0.0000                 WELLS =           0.0000
       RIVER LEAKAGE =     1230278.6250         RIVER LEAKAGE =        6435.1621
            RECHARGE =       34272.1602              RECHARGE =         564.4509

            TOTAL IN =     1264550.7500              TOTAL IN =        6999.6128

          OUT:                                     OUT:
          ----                                     ----
             STORAGE =     1252344.3750               STORAGE =        6802.8521
       CONSTANT HEAD =           0.0000         CONSTANT HEAD =           0.0000
               WELLS =       12109.2686                 WELLS =         198.4721
       RIVER LEAKAGE =         204.2491         RIVER LEAKAGE =           0.0000
            RECHARGE =           0.0000              RECHARGE =           0.0000

           TOTAL OUT =     1264657.8750             TOTAL OUT =        7001.3242

            IN - OUT =        -107.1250              IN - OUT =          -1.7114

 PERCENT DISCREPANCY =          -0.01     PERCENT DISCREPANCY =          -0.02






         TIME SUMMARY AT END OF TIME STEP   60 IN STRESS PERIOD    2
                    SECONDS     MINUTES      HOURS       DAYS        YEARS
                    -----------------------------------------------------------
   TIME STEP LENGTH  86400.      1440.0      24.000      1.0000     2.73785E-03
 STRESS PERIOD TIME 5.18400E+06  86400.      1440.0      60.000     0.16427    
         TOTAL TIME 5.27040E+06  87840.      1464.0      61.000     0.16701    
1

 SOLVING FOR HEAD 

    ------------------------------------------------
       NWT REQUIRED            3 OUTER ITERATIONS 
       AND A TOTAL OF          3 INNER ITERATIONS.
    ------------------------------------------------

 OUTPUT CONTROL FOR STRESS PERIOD    2   TIME STEP   61
    SAVE HEAD FOR ALL LAYERS
    SAVE DRAWDOWN FOR ALL LAYERS
    SAVE BUDGET
    PRINT HEAD FOR ALL LAYERS
    PRINT BUDGET
1
              HEAD IN LAYER   1 AT END OF TIME STEP  61 IN STRESS PERIOD    2
  ---------------------------------------------------------------------------

            1           2           3           4           5           6           7           8           9          10
           11          12          13          14          15          16          17          18          19          20
 ........................................................................................................................
   1    0.000       0.000       0.000       0.000       0.000       7.301       7.290       7.316       7.336       7.349    
        7.357       7.397       7.700       8.353       7.693       7.386       7.359       7.367       0.000       0.000    
   2    0.000       0.000       0.000       0.000       7.331       7.341       7.307       7.360       7.369       7.379    
        7.385       7.413       7.652       8.357       7.634       7.361       7.352       7.366       0.000       0.000    
   3    0.000       0.000       0.000       7.372       7.416       7.599       7.666       7.641       7.593       7.590    
        7.589       7.584       7.637       8.363       7.552       7.299       7.343       7.368       0.000       0.000    
   4    0.000       0.000       7.495       7.555       7.742       8.355       8.347       8.352       8.361       8.359    
        8.357       8.338       7.889       8.370       7.556       7.360       7.363       7.381       0.000       0.000    
   5    0.000       0.000       8.086       8.279       8.371       8.344       7.798       7.657       7.612       7.618    
        7.734       8.352       8.369       8.329       7.539       7.385       7.383       7.399       7.417       0.000    
   6    0.000       8.372       8.373       8.365       8.191       7.673       7.464       7.420       7.409       7.406    
        7.435       7.580       7.603       7.575       7.415       7.385       7.392       7.404       7.418       0.000    
   7    0.000       7.619       7.623       7.612       7.543       7.439       7.403       7.394       7.387       7.376    
        7.371       7.395       7.404       7.404       7.386       7.384       7.388       7.396       0.000       0.000    
   8    0.000       7.420       7.430       7.432       7.423       7.412       7.408       7.402       7.390       7.370    
        7.347       7.364       7.377       7.382       7.381       7.376       7.372       7.380       0.000       0.000    
   9    0.000       0.000       7.419       7.421       7.422       7.422       7.419       7.410       7.392       7.359    
        7.289       7.349       7.372       7.379       7.374       7.358       7.336       7.359       7.377       7.389    
  10    0.000       0.000       7.427       7.429       7.430       7.429       7.425       7.415       7.396       7.369    
        7.340       7.358       7.374       7.378       7.366       7.332       7.253       7.334       7.371       7.387    

 HEAD WILL BE SAVED ON UNIT   51 AT END OF TIME STEP   61, STRESS PERIOD    2

 DRAWDOWN WILL BE SAVED ON UNIT   52 AT END OF TIME STEP   61, STRESS PERIOD    2
1
  VOLUMETRIC BUDGET FOR ENTIRE MODEL AT END OF TIME STEP   61, STRESS PERIOD   2
  ------------------------------------------------------------------------------

     CUMULATIVE VOLUMES      L**3       RATES FOR THIS TIME STEP      L**3/T
     ------------------                 ------------------------

           IN:                                      IN:
           ---                                      ---
             STORAGE =           0.0000               STORAGE =           0.0000
       CONSTANT HEAD =           0.0000         CONSTANT HEAD =           0.0000
               WELLS =           0.0000                 WELLS =           0.0000
       RIVER LEAKAGE =     1236669.1250         RIVER LEAKAGE =        6390.4614
            RECHARGE =       34836.6094              RECHARGE =         564.4509

            TOTAL IN =     1271505.7500              TOTAL IN =        6954.9121

          OUT:                                     OUT:
          ----                                     ----
             STORAGE =     1259102.5000               STORAGE =        6758.1401
       CONSTANT HEAD =           0.0000         CONSTANT HEAD =           0.0000
               WELLS =       12307.7402                 WELLS =         198.4721
       RIVER LEAKAGE =         204.2491         RIVER LEAKAGE =           0.0000
            RECHARGE =           0.0000              RECHARGE =           0.0000

           TOTAL OUT =     1271614.5000             TOTAL OUT =        6956.6123

            IN - OUT =        -108.7500              IN - OUT =          -1.7002

 PERCENT DISCREPANCY =          -0.01     PERCENT DISCREPANCY =          -0.02






         TIME SUMMARY AT END OF TIME STEP   61 IN STRESS PERIOD    2
                    SECONDS     MINUTES      HOURS       DAYS        YEARS
                    -----------------------------------------------------------
   TIME STEP LENGTH  86400.      1440.0      24.000      1.0000     2.73785E-03
 STRESS PERIOD TIME 5.27040E+06  87840.      1464.0      61.000     0.16701    
         TOTAL TIME 5.35680E+06  89280.      1488.0      62.000     0.16975    
1

 SOLVING FOR HEAD 

    ------------------------------------------------
       NWT REQUIRED            3 OUTER ITERATIONS 
       AND A TOTAL OF          3 INNER ITERATIONS.
    ------------------------------------------------

 OUTPUT CONTROL FOR STRESS PERIOD    2   TIME STEP   62
    SAVE HEAD FOR ALL LAYERS
    SAVE DRAWDOWN FOR ALL LAYERS
    SAVE BUDGET
    PRINT HEAD FOR ALL LAYERS
    PRINT BUDGET
1
              HEAD IN LAYER   1 AT END OF TIME STEP  62 IN STRESS PERIOD    2
  ---------------------------------------------------------------------------

            1           2           3           4           5           6           7           8           9          10
           11          12          13          14          15          16          17          18          19          20
 ........................................................................................................................
   1    0.000       0.000       0.000       0.000       0.000       7.301       7.291       7.316       7.336       7.349    
        7.357       7.398       7.704       8.353       7.697       7.387       7.360       7.367       0.000       0.000    
   2    0.000       0.000       0.000       0.000       7.332       7.343       7.309       7.361       7.371       7.380    
        7.386       7.415       7.656       8.358       7.638       7.362       7.352       7.366       0.000       0.000    
   3    0.000       0.000       0.000       7.373       7.418       7.602       7.669       7.645       7.597       7.593    
        7.592       7.588       7.642       8.363       7.555       7.300       7.343       7.368       0.000       0.000    
   4    0.000       0.000       7.499       7.559       7.747       8.355       8.348       8.352       8.361       8.359    
        8.358       8.338       7.895       8.370       7.559       7.361       7.364       7.381       0.000       0.000    
   5    0.000       0.000       8.091       8.281       8.371       8.344       7.802       7.661       7.616       7.622    
        7.739       8.352       8.369       8.329       7.542       7.385       7.383       7.399       7.417       0.000    
   6    0.000       8.372       8.373       8.365       8.194       7.677       7.466       7.422       7.410       7.408    
        7.437       7.583       7.606       7.577       7.417       7.385       7.392       7.404       7.418       0.000    
   7    0.000       7.622       7.626       7.615       7.546       7.441       7.403       7.394       7.387       7.377    
        7.372       7.396       7.405       7.404       7.386       7.384       7.388       7.396       0.000       0.000    
   8    0.000       7.422       7.431       7.433       7.424       7.413       7.408       7.402       7.390       7.370    
        7.347       7.364       7.377       7.382       7.381       7.376       7.372       7.380       0.000       0.000    
   9    0.000       0.000       7.419       7.421       7.422       7.422       7.419       7.410       7.392       7.359    
        7.289       7.349       7.372       7.379       7.374       7.358       7.337       7.359       7.377       7.389    
  10    0.000       0.000       7.428       7.429       7.430       7.429       7.425       7.415       7.396       7.369    
        7.340       7.358       7.374       7.378       7.366       7.332       7.253       7.334       7.371       7.387    

 HEAD WILL BE SAVED ON UNIT   51 AT END OF TIME STEP   62, STRESS PERIOD    2

 DRAWDOWN WILL BE SAVED ON UNIT   52 AT END OF TIME STEP   62, STRESS PERIOD    2
1
  VOLUMETRIC BUDGET FOR ENTIRE MODEL AT END OF TIME STEP   62, STRESS PERIOD   2
  ------------------------------------------------------------------------------

     CUMULATIVE VOLUMES      L**3       RATES FOR THIS TIME STEP      L**3/T
     ------------------                 ------------------------

           IN:                                      IN:
           ---                                      ---
             STORAGE =           0.0000               STORAGE =           0.0000
       CONSTANT HEAD =           0.0000         CONSTANT HEAD =           0.0000
               WELLS =           0.0000                 WELLS =           0.0000
       RIVER LEAKAGE =     1243015.7500         RIVER LEAKAGE =        6346.6743
            RECHARGE =       35401.0586              RECHARGE =         564.4509

            TOTAL IN =     1278416.7500              TOTAL IN =        6911.1250

          OUT:                                     OUT:
          ----                                     ----
             STORAGE =     1265816.8750               STORAGE =        6714.3418
       CONSTANT HEAD =           0.0000         CONSTANT HEAD =           0.0000
               WELLS =       12506.2119                 WELLS =         198.4721
       RIVER LEAKAGE =         204.2491         RIVER LEAKAGE =           0.0000
            RECHARGE =           0.0000              RECHARGE =           0.0000

           TOTAL OUT =     1278527.3750             TOTAL OUT =        6912.8140

            IN - OUT =        -110.6250              IN - OUT =          -1.6890

 PERCENT DISCREPANCY =          -0.01     PERCENT DISCREPANCY =          -0.02






         TIME SUMMARY AT END OF TIME STEP   62 IN STRESS PERIOD    2
                    SECONDS     MINUTES      HOURS       DAYS        YEARS
                    -----------------------------------------------------------
   TIME STEP LENGTH  86400.      1440.0      24.000      1.0000     2.73785E-03
 STRESS PERIOD TIME 5.35680E+06  89280.      1488.0      62.000     0.16975    
         TOTAL TIME 5.44320E+06  90720.      1512.0      63.000     0.17248    
1

 SOLVING FOR HEAD 

    ------------------------------------------------
       NWT REQUIRED            3 OUTER ITERATIONS 
       AND A TOTAL OF          3 INNER ITERATIONS.
    ------------------------------------------------

 OUTPUT CONTROL FOR STRESS PERIOD    2   TIME STEP   63
    SAVE HEAD FOR ALL LAYERS
    SAVE DRAWDOWN FOR ALL LAYERS
    SAVE BUDGET
    PRINT HEAD FOR ALL LAYERS
    PRINT BUDGET
1
              HEAD IN LAYER   1 AT END OF TIME STEP  63 IN STRESS PERIOD    2
  ---------------------------------------------------------------------------

            1           2           3           4           5           6           7           8           9          10
           11          12          13          14          15          16          17          18          19          20
 ........................................................................................................................
   1    0.000       0.000       0.000       0.000       0.000       7.301       7.291       7.316       7.336       7.349    
        7.358       7.400       7.708       8.354       7.701       7.388       7.360       7.367       0.000       0.000    
   2    0.000       0.000       0.000       0.000       7.332       7.344       7.311       7.363       7.372       7.381    
        7.387       7.417       7.661       8.358       7.641       7.364       7.353       7.366       0.000       0.000    
   3    0.000       0.000       0.000       7.374       7.421       7.605       7.673       7.648       7.600       7.597    
        7.595       7.592       7.647       8.363       7.559       7.301       7.344       7.368       0.000       0.000    
   4    0.000       0.000       7.503       7.563       7.751       8.355       8.348       8.352       8.361       8.359    
        8.358       8.339       7.900       8.370       7.562       7.362       7.364       7.381       0.000       0.000    
   5    0.000       0.000       8.096       8.282       8.371       8.345       7.807       7.665       7.619       7.625    
        7.743       8.353       8.370       8.329       7.544       7.386       7.383       7.399       7.417       0.000    
   6    0.000       8.373       8.373       8.365       8.196       7.681       7.469       7.423       7.411       7.409    
        7.439       7.586       7.609       7.580       7.418       7.385       7.392       7.404       7.418       0.000    
   7    0.000       7.625       7.630       7.619       7.549       7.442       7.404       7.395       7.387       7.377    
        7.372       7.397       7.407       7.405       7.387       7.385       7.388       7.396       0.000       0.000    
   8    0.000       7.423       7.432       7.434       7.425       7.413       7.408       7.402       7.390       7.370    
        7.347       7.364       7.377       7.383       7.381       7.376       7.372       7.380       0.000       0.000    
   9    0.000       0.000       7.420       7.422       7.423       7.422       7.419       7.410       7.392       7.359    
        7.289       7.349       7.372       7.379       7.374       7.358       7.337       7.359       7.377       7.389    
  10    0.000       0.000       7.428       7.429       7.430       7.429       7.425       7.415       7.396       7.369    
        7.340       7.358       7.374       7.378       7.366       7.332       7.253       7.334       7.371       7.387    

 HEAD WILL BE SAVED ON UNIT   51 AT END OF TIME STEP   63, STRESS PERIOD    2

 DRAWDOWN WILL BE SAVED ON UNIT   52 AT END OF TIME STEP   63, STRESS PERIOD    2
1
  VOLUMETRIC BUDGET FOR ENTIRE MODEL AT END OF TIME STEP   63, STRESS PERIOD   2
  ------------------------------------------------------------------------------

     CUMULATIVE VOLUMES      L**3       RATES FOR THIS TIME STEP      L**3/T
     ------------------                 ------------------------

           IN:                                      IN:
           ---                                      ---
             STORAGE =           0.0000               STORAGE =           0.0000
       CONSTANT HEAD =           0.0000         CONSTANT HEAD =           0.0000
               WELLS =           0.0000                 WELLS =           0.0000
       RIVER LEAKAGE =     1249319.5000         RIVER LEAKAGE =        6303.7505
            RECHARGE =       35965.5078              RECHARGE =         564.4509

            TOTAL IN =     1285285.0000              TOTAL IN =        6868.2012

          OUT:                                     OUT:
          ----                                     ----
             STORAGE =     1272488.2500               STORAGE =        6671.4072
       CONSTANT HEAD =           0.0000         CONSTANT HEAD =           0.0000
               WELLS =       12704.6836                 WELLS =         198.4721
       RIVER LEAKAGE =         204.2491         RIVER LEAKAGE =           0.0000
            RECHARGE =           0.0000              RECHARGE =           0.0000

           TOTAL OUT =     1285397.1250             TOTAL OUT =        6869.8794

            IN - OUT =        -112.1250              IN - OUT =          -1.6782

 PERCENT DISCREPANCY =          -0.01     PERCENT DISCREPANCY =          -0.02






         TIME SUMMARY AT END OF TIME STEP   63 IN STRESS PERIOD    2
                    SECONDS     MINUTES      HOURS       DAYS        YEARS
                    -----------------------------------------------------------
   TIME STEP LENGTH  86400.      1440.0      24.000      1.0000     2.73785E-03
 STRESS PERIOD TIME 5.44320E+06  90720.      1512.0      63.000     0.17248    
         TOTAL TIME 5.52960E+06  92160.      1536.0      64.000     0.17522    
1

 SOLVING FOR HEAD 

    ------------------------------------------------
       NWT REQUIRED            3 OUTER ITERATIONS 
       AND A TOTAL OF          3 INNER ITERATIONS.
    ------------------------------------------------

 OUTPUT CONTROL FOR STRESS PERIOD    2   TIME STEP   64
    SAVE HEAD FOR ALL LAYERS
    SAVE DRAWDOWN FOR ALL LAYERS
    SAVE BUDGET
    PRINT HEAD FOR ALL LAYERS
    PRINT BUDGET
1
              HEAD IN LAYER   1 AT END OF TIME STEP  64 IN STRESS PERIOD    2
  ---------------------------------------------------------------------------

            1           2           3           4           5           6           7           8           9          10
           11          12          13          14          15          16          17          18          19          20
 ........................................................................................................................
   1    0.000       0.000       0.000       0.000       0.000       7.301       7.291       7.317       7.337       7.349    
        7.358       7.401       7.712       8.354       7.706       7.390       7.360       7.368       0.000       0.000    
   2    0.000       0.000       0.000       0.000       7.333       7.345       7.313       7.365       7.373       7.383    
        7.389       7.419       7.665       8.358       7.645       7.365       7.353       7.366       0.000       0.000    
   3    0.000       0.000       0.000       7.376       7.423       7.609       7.677       7.652       7.604       7.600    
        7.599       7.595       7.651       8.363       7.562       7.302       7.344       7.368       0.000       0.000    
   4    0.000       0.000       7.506       7.567       7.755       8.355       8.348       8.353       8.361       8.359    
        8.358       8.339       7.906       8.370       7.565       7.363       7.364       7.381       0.000       0.000    
   5    0.000       0.000       8.100       8.284       8.371       8.345       7.812       7.668       7.623       7.629    
        7.747       8.353       8.370       8.330       7.547       7.387       7.383       7.399       7.417       0.000    
   6    0.000       8.373       8.374       8.365       8.198       7.685       7.471       7.425       7.412       7.410    
        7.441       7.589       7.612       7.583       7.419       7.386       7.392       7.404       7.418       0.000    
   7    0.000       7.629       7.633       7.622       7.552       7.444       7.405       7.395       7.387       7.377    
        7.373       7.398       7.408       7.406       7.387       7.385       7.389       7.396       0.000       0.000    
   8    0.000       7.424       7.433       7.435       7.426       7.413       7.408       7.402       7.390       7.370    
        7.347       7.364       7.377       7.383       7.381       7.376       7.373       7.380       0.000       0.000    
   9    0.000       0.000       7.420       7.422       7.423       7.422       7.419       7.410       7.392       7.359    
        7.289       7.349       7.373       7.379       7.374       7.358       7.337       7.359       7.377       7.389    
  10    0.000       0.000       7.428       7.429       7.430       7.429       7.425       7.415       7.396       7.369    
        7.340       7.358       7.374       7.378       7.366       7.332       7.253       7.334       7.371       7.387    

 HEAD WILL BE SAVED ON UNIT   51 AT END OF TIME STEP   64, STRESS PERIOD    2

 DRAWDOWN WILL BE SAVED ON UNIT   52 AT END OF TIME STEP   64, STRESS PERIOD    2
1
  VOLUMETRIC BUDGET FOR ENTIRE MODEL AT END OF TIME STEP   64, STRESS PERIOD   2
  ------------------------------------------------------------------------------

     CUMULATIVE VOLUMES      L**3       RATES FOR THIS TIME STEP      L**3/T
     ------------------                 ------------------------

           IN:                                      IN:
           ---                                      ---
             STORAGE =           0.0000               STORAGE =           0.0000
       CONSTANT HEAD =           0.0000         CONSTANT HEAD =           0.0000
               WELLS =           0.0000                 WELLS =           0.0000
       RIVER LEAKAGE =     1255581.1250         RIVER LEAKAGE =        6261.6641
            RECHARGE =       36529.9570              RECHARGE =         564.4509

            TOTAL IN =     1292111.1250              TOTAL IN =        6826.1147

          OUT:                                     OUT:
          ----                                     ----
             STORAGE =     1279117.5000               STORAGE =        6629.3101
       CONSTANT HEAD =           0.0000         CONSTANT HEAD =           0.0000
               WELLS =       12903.1553                 WELLS =         198.4721
       RIVER LEAKAGE =         204.2491         RIVER LEAKAGE =           0.0000
            RECHARGE =           0.0000              RECHARGE =           0.0000

           TOTAL OUT =     1292224.8750             TOTAL OUT =        6827.7822

            IN - OUT =        -113.7500              IN - OUT =          -1.6675

 PERCENT DISCREPANCY =          -0.01     PERCENT DISCREPANCY =          -0.02






         TIME SUMMARY AT END OF TIME STEP   64 IN STRESS PERIOD    2
                    SECONDS     MINUTES      HOURS       DAYS        YEARS
                    -----------------------------------------------------------
   TIME STEP LENGTH  86400.      1440.0      24.000      1.0000     2.73785E-03
 STRESS PERIOD TIME 5.52960E+06  92160.      1536.0      64.000     0.17522    
         TOTAL TIME 5.61600E+06  93600.      1560.0      65.000     0.17796    
1

 SOLVING FOR HEAD 

    ------------------------------------------------
       NWT REQUIRED            3 OUTER ITERATIONS 
       AND A TOTAL OF          3 INNER ITERATIONS.
    ------------------------------------------------

 OUTPUT CONTROL FOR STRESS PERIOD    2   TIME STEP   65
    SAVE HEAD FOR ALL LAYERS
    SAVE DRAWDOWN FOR ALL LAYERS
    SAVE BUDGET
    PRINT HEAD FOR ALL LAYERS
    PRINT BUDGET
1
              HEAD IN LAYER   1 AT END OF TIME STEP  65 IN STRESS PERIOD    2
  ---------------------------------------------------------------------------

            1           2           3           4           5           6           7           8           9          10
           11          12          13          14          15          16          17          18          19          20
 ........................................................................................................................
   1    0.000       0.000       0.000       0.000       0.000       7.302       7.292       7.317       7.337       7.350    
        7.359       7.403       7.716       8.354       7.710       7.391       7.360       7.368       0.000       0.000    
   2    0.000       0.000       0.000       0.000       7.334       7.347       7.314       7.366       7.374       7.384    
        7.390       7.421       7.669       8.358       7.649       7.366       7.353       7.366       0.000       0.000    
   3    0.000       0.000       0.000       7.377       7.425       7.612       7.681       7.656       7.607       7.603    
        7.602       7.599       7.656       8.363       7.565       7.303       7.344       7.368       0.000       0.000    
   4    0.000       0.000       7.510       7.571       7.759       8.355       8.348       8.353       8.361       8.359    
        8.358       8.340       7.912       8.370       7.568       7.364       7.364       7.381       0.000       0.000    
   5    0.000       0.000       8.104       8.285       8.372       8.345       7.816       7.672       7.626       7.633    
        7.751       8.353       8.370       8.330       7.549       7.387       7.383       7.399       7.417       0.000    
   6    0.000       8.373       8.374       8.365       8.200       7.689       7.474       7.426       7.414       7.412    
        7.443       7.591       7.615       7.586       7.420       7.386       7.392       7.404       7.418       0.000    
   7    0.000       7.632       7.636       7.625       7.555       7.446       7.405       7.395       7.388       7.378    
        7.373       7.398       7.409       7.407       7.387       7.385       7.389       7.396       0.000       0.000    
   8    0.000       7.426       7.434       7.436       7.426       7.414       7.409       7.402       7.390       7.370    
        7.347       7.364       7.377       7.383       7.381       7.376       7.373       7.380       0.000       0.000    
   9    0.000       0.000       7.420       7.422       7.423       7.422       7.419       7.410       7.392       7.359    
        7.289       7.350       7.373       7.379       7.374       7.358       7.337       7.359       7.377       7.389    
  10    0.000       0.000       7.428       7.429       7.430       7.430       7.425       7.415       7.396       7.369    
        7.340       7.358       7.374       7.378       7.366       7.332       7.253       7.334       7.371       7.387    

 HEAD WILL BE SAVED ON UNIT   51 AT END OF TIME STEP   65, STRESS PERIOD    2

 DRAWDOWN WILL BE SAVED ON UNIT   52 AT END OF TIME STEP   65, STRESS PERIOD    2
1
  VOLUMETRIC BUDGET FOR ENTIRE MODEL AT END OF TIME STEP   65, STRESS PERIOD   2
  ------------------------------------------------------------------------------

     CUMULATIVE VOLUMES      L**3       RATES FOR THIS TIME STEP      L**3/T
     ------------------                 ------------------------

           IN:                                      IN:
           ---                                      ---
             STORAGE =           0.0000               STORAGE =           0.0000
       CONSTANT HEAD =           0.0000         CONSTANT HEAD =           0.0000
               WELLS =           0.0000                 WELLS =           0.0000
       RIVER LEAKAGE =     1261801.5000         RIVER LEAKAGE =        6220.3345
            RECHARGE =       37094.4062              RECHARGE =         564.4509

            TOTAL IN =     1298895.8750              TOTAL IN =        6784.7852

          OUT:                                     OUT:
          ----                                     ----
             STORAGE =     1285705.5000               STORAGE =        6587.9697
       CONSTANT HEAD =           0.0000         CONSTANT HEAD =           0.0000
               WELLS =       13101.6270                 WELLS =         198.4721
       RIVER LEAKAGE =         204.2491         RIVER LEAKAGE =           0.0000
            RECHARGE =           0.0000              RECHARGE =           0.0000

           TOTAL OUT =     1299011.3750             TOTAL OUT =        6786.4419

            IN - OUT =        -115.5000              IN - OUT =          -1.6567

 PERCENT DISCREPANCY =          -0.01     PERCENT DISCREPANCY =          -0.02






         TIME SUMMARY AT END OF TIME STEP   65 IN STRESS PERIOD    2
                    SECONDS     MINUTES      HOURS       DAYS        YEARS
                    -----------------------------------------------------------
   TIME STEP LENGTH  86400.      1440.0      24.000      1.0000     2.73785E-03
 STRESS PERIOD TIME 5.61600E+06  93600.      1560.0      65.000     0.17796    
         TOTAL TIME 5.70240E+06  95040.      1584.0      66.000     0.18070    
1

 SOLVING FOR HEAD 

    ------------------------------------------------
       NWT REQUIRED            3 OUTER ITERATIONS 
       AND A TOTAL OF          3 INNER ITERATIONS.
    ------------------------------------------------

 OUTPUT CONTROL FOR STRESS PERIOD    2   TIME STEP   66
    SAVE HEAD FOR ALL LAYERS
    SAVE DRAWDOWN FOR ALL LAYERS
    SAVE BUDGET
    PRINT HEAD FOR ALL LAYERS
    PRINT BUDGET
1
              HEAD IN LAYER   1 AT END OF TIME STEP  66 IN STRESS PERIOD    2
  ---------------------------------------------------------------------------

            1           2           3           4           5           6           7           8           9          10
           11          12          13          14          15          16          17          18          19          20
 ........................................................................................................................
   1    0.000       0.000       0.000       0.000       0.000       7.302       7.292       7.317       7.337       7.350    
        7.359       7.404       7.720       8.354       7.714       7.392       7.360       7.368       0.000       0.000    
   2    0.000       0.000       0.000       0.000       7.334       7.348       7.316       7.368       7.376       7.385    
        7.391       7.423       7.673       8.358       7.653       7.367       7.353       7.366       0.000       0.000    
   3    0.000       0.000       0.000       7.379       7.427       7.615       7.684       7.659       7.611       7.606    
        7.605       7.603       7.661       8.363       7.568       7.304       7.344       7.368       0.000       0.000    
   4    0.000       0.000       7.514       7.575       7.764       8.356       8.349       8.353       8.361       8.359    
        8.358       8.340       7.917       8.370       7.570       7.365       7.364       7.381       0.000       0.000    
   5    0.000       0.000       8.108       8.287       8.372       8.346       7.821       7.676       7.629       7.636    
        7.756       8.353       8.370       8.330       7.552       7.388       7.384       7.399       7.417       0.000    
   6    0.000       8.373       8.374       8.365       8.202       7.693       7.476       7.428       7.415       7.413    
        7.445       7.594       7.618       7.588       7.422       7.386       7.392       7.404       7.418       0.000    
   7    0.000       7.635       7.639       7.628       7.558       7.447       7.406       7.396       7.388       7.378    
        7.374       7.399       7.410       7.408       7.388       7.385       7.389       7.396       0.000       0.000    
   8    0.000       7.427       7.436       7.437       7.427       7.414       7.409       7.402       7.390       7.370    
        7.348       7.365       7.378       7.383       7.381       7.376       7.373       7.380       0.000       0.000    
   9    0.000       0.000       7.420       7.422       7.423       7.422       7.419       7.410       7.392       7.359    
        7.289       7.350       7.373       7.379       7.374       7.358       7.337       7.359       7.377       7.389    
  10    0.000       0.000       7.428       7.429       7.430       7.430       7.425       7.415       7.396       7.369    
        7.340       7.358       7.374       7.378       7.366       7.332       7.253       7.334       7.371       7.387    

 HEAD WILL BE SAVED ON UNIT   51 AT END OF TIME STEP   66, STRESS PERIOD    2

 DRAWDOWN WILL BE SAVED ON UNIT   52 AT END OF TIME STEP   66, STRESS PERIOD    2
1
  VOLUMETRIC BUDGET FOR ENTIRE MODEL AT END OF TIME STEP   66, STRESS PERIOD   2
  ------------------------------------------------------------------------------

     CUMULATIVE VOLUMES      L**3       RATES FOR THIS TIME STEP      L**3/T
     ------------------                 ------------------------

           IN:                                      IN:
           ---                                      ---
             STORAGE =           0.0000               STORAGE =           0.0000
       CONSTANT HEAD =           0.0000         CONSTANT HEAD =           0.0000
               WELLS =           0.0000                 WELLS =           0.0000
       RIVER LEAKAGE =     1267981.2500         RIVER LEAKAGE =        6179.7876
            RECHARGE =       37658.8555              RECHARGE =         564.4509

            TOTAL IN =     1305640.1250              TOTAL IN =        6744.2383

          OUT:                                     OUT:
          ----                                     ----
             STORAGE =     1292252.8750               STORAGE =        6547.4126
       CONSTANT HEAD =           0.0000         CONSTANT HEAD =           0.0000
               WELLS =       13300.0986                 WELLS =         198.4721
       RIVER LEAKAGE =         204.2491         RIVER LEAKAGE =           0.0000
            RECHARGE =           0.0000              RECHARGE =           0.0000

           TOTAL OUT =     1305757.2500             TOTAL OUT =        6745.8848

            IN - OUT =        -117.1250              IN - OUT =          -1.6465

 PERCENT DISCREPANCY =          -0.01     PERCENT DISCREPANCY =          -0.02






         TIME SUMMARY AT END OF TIME STEP   66 IN STRESS PERIOD    2
                    SECONDS     MINUTES      HOURS       DAYS        YEARS
                    -----------------------------------------------------------
   TIME STEP LENGTH  86400.      1440.0      24.000      1.0000     2.73785E-03
 STRESS PERIOD TIME 5.70240E+06  95040.      1584.0      66.000     0.18070    
         TOTAL TIME 5.78880E+06  96480.      1608.0      67.000     0.18344    
1

 SOLVING FOR HEAD 

    ------------------------------------------------
       NWT REQUIRED            3 OUTER ITERATIONS 
       AND A TOTAL OF          3 INNER ITERATIONS.
    ------------------------------------------------

 OUTPUT CONTROL FOR STRESS PERIOD    2   TIME STEP   67
    SAVE HEAD FOR ALL LAYERS
    SAVE DRAWDOWN FOR ALL LAYERS
    SAVE BUDGET
    PRINT HEAD FOR ALL LAYERS
    PRINT BUDGET
1
              HEAD IN LAYER   1 AT END OF TIME STEP  67 IN STRESS PERIOD    2
  ---------------------------------------------------------------------------

            1           2           3           4           5           6           7           8           9          10
           11          12          13          14          15          16          17          18          19          20
 ........................................................................................................................
   1    0.000       0.000       0.000       0.000       0.000       7.302       7.293       7.318       7.337       7.350    
        7.359       7.406       7.724       8.354       7.718       7.394       7.361       7.368       0.000       0.000    
   2    0.000       0.000       0.000       0.000       7.335       7.349       7.318       7.369       7.377       7.386    
        7.393       7.425       7.677       8.358       7.656       7.368       7.353       7.366       0.000       0.000    
   3    0.000       0.000       0.000       7.380       7.430       7.618       7.688       7.663       7.614       7.610    
        7.608       7.606       7.666       8.364       7.571       7.305       7.344       7.368       0.000       0.000    
   4    0.000       0.000       7.518       7.578       7.768       8.356       8.349       8.353       8.361       8.359    
        8.358       8.340       7.923       8.370       7.573       7.366       7.364       7.381       0.000       0.000    
   5    0.000       0.000       8.112       8.288       8.372       8.346       7.825       7.680       7.633       7.640    
        7.760       8.353       8.370       8.330       7.554       7.389       7.384       7.399       7.417       0.000    
   6    0.000       8.373       8.374       8.366       8.204       7.697       7.479       7.429       7.416       7.414    
        7.447       7.597       7.621       7.591       7.423       7.386       7.392       7.405       7.418       0.000    
   7    0.000       7.638       7.642       7.631       7.561       7.449       7.407       7.396       7.388       7.378    
        7.374       7.400       7.411       7.409       7.388       7.385       7.389       7.396       0.000       0.000    
   8    0.000       7.428       7.437       7.439       7.428       7.415       7.409       7.403       7.390       7.370    
        7.348       7.365       7.378       7.383       7.381       7.377       7.373       7.380       0.000       0.000    
   9    0.000       0.000       7.420       7.423       7.423       7.422       7.419       7.410       7.392       7.359    
        7.289       7.350       7.373       7.379       7.374       7.358       7.337       7.359       7.377       7.389    
  10    0.000       0.000       7.428       7.429       7.430       7.430       7.425       7.415       7.396       7.369    
        7.340       7.358       7.374       7.378       7.366       7.332       7.253       7.334       7.371       7.387    

 HEAD WILL BE SAVED ON UNIT   51 AT END OF TIME STEP   67, STRESS PERIOD    2

 DRAWDOWN WILL BE SAVED ON UNIT   52 AT END OF TIME STEP   67, STRESS PERIOD    2
1
  VOLUMETRIC BUDGET FOR ENTIRE MODEL AT END OF TIME STEP   67, STRESS PERIOD   2
  ------------------------------------------------------------------------------

     CUMULATIVE VOLUMES      L**3       RATES FOR THIS TIME STEP      L**3/T
     ------------------                 ------------------------

           IN:                                      IN:
           ---                                      ---
             STORAGE =           0.0000               STORAGE =           0.0000
       CONSTANT HEAD =           0.0000         CONSTANT HEAD =           0.0000
               WELLS =           0.0000                 WELLS =           0.0000
       RIVER LEAKAGE =     1274121.2500         RIVER LEAKAGE =        6139.9702
            RECHARGE =       38223.3047              RECHARGE =         564.4509

            TOTAL IN =     1312344.5000              TOTAL IN =        6704.4209

          OUT:                                     OUT:
          ----                                     ----
             STORAGE =     1298760.5000               STORAGE =        6507.5850
       CONSTANT HEAD =           0.0000         CONSTANT HEAD =           0.0000
               WELLS =       13498.5703                 WELLS =         198.4721
       RIVER LEAKAGE =         204.2491         RIVER LEAKAGE =           0.0000
            RECHARGE =           0.0000              RECHARGE =           0.0000

           TOTAL OUT =     1312463.3750             TOTAL OUT =        6706.0571

            IN - OUT =        -118.8750              IN - OUT =          -1.6362

 PERCENT DISCREPANCY =          -0.01     PERCENT DISCREPANCY =          -0.02






         TIME SUMMARY AT END OF TIME STEP   67 IN STRESS PERIOD    2
                    SECONDS     MINUTES      HOURS       DAYS        YEARS
                    -----------------------------------------------------------
   TIME STEP LENGTH  86400.      1440.0      24.000      1.0000     2.73785E-03
 STRESS PERIOD TIME 5.78880E+06  96480.      1608.0      67.000     0.18344    
         TOTAL TIME 5.87520E+06  97920.      1632.0      68.000     0.18617    
1

 SOLVING FOR HEAD 

    ------------------------------------------------
       NWT REQUIRED            3 OUTER ITERATIONS 
       AND A TOTAL OF          3 INNER ITERATIONS.
    ------------------------------------------------

 OUTPUT CONTROL FOR STRESS PERIOD    2   TIME STEP   68
    SAVE HEAD FOR ALL LAYERS
    SAVE DRAWDOWN FOR ALL LAYERS
    SAVE BUDGET
    PRINT HEAD FOR ALL LAYERS
    PRINT BUDGET
1
              HEAD IN LAYER   1 AT END OF TIME STEP  68 IN STRESS PERIOD    2
  ---------------------------------------------------------------------------

            1           2           3           4           5           6           7           8           9          10
           11          12          13          14          15          16          17          18          19          20
 ........................................................................................................................
   1    0.000       0.000       0.000       0.000       0.000       7.303       7.293       7.318       7.338       7.350    
        7.360       7.407       7.728       8.355       7.721       7.395       7.361       7.368       0.000       0.000    
   2    0.000       0.000       0.000       0.000       7.336       7.350       7.320       7.371       7.378       7.387    
        7.394       7.428       7.681       8.358       7.660       7.370       7.354       7.366       0.000       0.000    
   3    0.000       0.000       0.000       7.382       7.432       7.621       7.691       7.667       7.617       7.613    
        7.611       7.610       7.670       8.364       7.575       7.306       7.345       7.368       0.000       0.000    
   4    0.000       0.000       7.522       7.582       7.772       8.356       8.349       8.353       8.361       8.360    
        8.358       8.341       7.928       8.370       7.576       7.366       7.365       7.381       0.000       0.000    
   5    0.000       0.000       8.116       8.289       8.372       8.346       7.829       7.684       7.636       7.643    
        7.764       8.353       8.370       8.330       7.557       7.390       7.384       7.399       7.417       0.000    
   6    0.000       8.373       8.374       8.366       8.206       7.701       7.481       7.431       7.417       7.416    
        7.449       7.600       7.624       7.594       7.424       7.387       7.392       7.405       7.418       0.000    
   7    0.000       7.642       7.646       7.634       7.564       7.451       7.407       7.396       7.388       7.378    
        7.375       7.401       7.412       7.410       7.388       7.385       7.389       7.396       0.000       0.000    
   8    0.000       7.430       7.438       7.440       7.429       7.415       7.409       7.403       7.390       7.370    
        7.348       7.365       7.378       7.384       7.381       7.377       7.373       7.380       0.000       0.000    
   9    0.000       0.000       7.421       7.423       7.423       7.422       7.419       7.410       7.392       7.359    
        7.289       7.350       7.373       7.380       7.374       7.358       7.337       7.359       7.377       7.390    
  10    0.000       0.000       7.428       7.429       7.430       7.430       7.425       7.415       7.396       7.369    
        7.340       7.358       7.374       7.378       7.366       7.332       7.253       7.334       7.371       7.387    

 HEAD WILL BE SAVED ON UNIT   51 AT END OF TIME STEP   68, STRESS PERIOD    2

 DRAWDOWN WILL BE SAVED ON UNIT   52 AT END OF TIME STEP   68, STRESS PERIOD    2
1
  VOLUMETRIC BUDGET FOR ENTIRE MODEL AT END OF TIME STEP   68, STRESS PERIOD   2
  ------------------------------------------------------------------------------

     CUMULATIVE VOLUMES      L**3       RATES FOR THIS TIME STEP      L**3/T
     ------------------                 ------------------------

           IN:                                      IN:
           ---                                      ---
             STORAGE =           0.0000               STORAGE =           0.0000
       CONSTANT HEAD =           0.0000         CONSTANT HEAD =           0.0000
               WELLS =           0.0000                 WELLS =           0.0000
       RIVER LEAKAGE =     1280222.1250         RIVER LEAKAGE =        6100.8643
            RECHARGE =       38787.7539              RECHARGE =         564.4509

            TOTAL IN =     1319009.8750              TOTAL IN =        6665.3149

          OUT:                                     OUT:
          ----                                     ----
             STORAGE =     1305229.0000               STORAGE =        6468.4692
       CONSTANT HEAD =           0.0000         CONSTANT HEAD =           0.0000
               WELLS =       13697.0420                 WELLS =         198.4721
       RIVER LEAKAGE =         204.2491         RIVER LEAKAGE =           0.0000
            RECHARGE =           0.0000              RECHARGE =           0.0000

           TOTAL OUT =     1319130.2500             TOTAL OUT =        6666.9414

            IN - OUT =        -120.3750              IN - OUT =          -1.6265

 PERCENT DISCREPANCY =          -0.01     PERCENT DISCREPANCY =          -0.02






         TIME SUMMARY AT END OF TIME STEP   68 IN STRESS PERIOD    2
                    SECONDS     MINUTES      HOURS       DAYS        YEARS
                    -----------------------------------------------------------
   TIME STEP LENGTH  86400.      1440.0      24.000      1.0000     2.73785E-03
 STRESS PERIOD TIME 5.87520E+06  97920.      1632.0      68.000     0.18617    
         TOTAL TIME 5.96160E+06  99360.      1656.0      69.000     0.18891    
1

 SOLVING FOR HEAD 

    ------------------------------------------------
       NWT REQUIRED            3 OUTER ITERATIONS 
       AND A TOTAL OF          3 INNER ITERATIONS.
    ------------------------------------------------

 OUTPUT CONTROL FOR STRESS PERIOD    2   TIME STEP   69
    SAVE HEAD FOR ALL LAYERS
    SAVE DRAWDOWN FOR ALL LAYERS
    SAVE BUDGET
    PRINT HEAD FOR ALL LAYERS
    PRINT BUDGET
1
              HEAD IN LAYER   1 AT END OF TIME STEP  69 IN STRESS PERIOD    2
  ---------------------------------------------------------------------------

            1           2           3           4           5           6           7           8           9          10
           11          12          13          14          15          16          17          18          19          20
 ........................................................................................................................
   1    0.000       0.000       0.000       0.000       0.000       7.303       7.294       7.318       7.338       7.351    
        7.360       7.409       7.732       8.355       7.725       7.397       7.361       7.368       0.000       0.000    
   2    0.000       0.000       0.000       0.000       7.337       7.352       7.321       7.373       7.379       7.388    
        7.395       7.430       7.685       8.359       7.663       7.371       7.354       7.366       0.000       0.000    
   3    0.000       0.000       0.000       7.383       7.434       7.624       7.695       7.670       7.620       7.616    
        7.615       7.613       7.675       8.364       7.578       7.307       7.345       7.368       0.000       0.000    
   4    0.000       0.000       7.526       7.586       7.776       8.356       8.349       8.354       8.361       8.360    
        8.359       8.341       7.933       8.370       7.579       7.367       7.365       7.381       0.000       0.000    
   5    0.000       0.000       8.120       8.290       8.372       8.346       7.833       7.688       7.639       7.647    
        7.768       8.354       8.370       8.331       7.559       7.390       7.384       7.399       7.417       0.000    
   6    0.000       8.373       8.374       8.366       8.208       7.705       7.484       7.432       7.419       7.417    
        7.451       7.602       7.627       7.596       7.426       7.387       7.393       7.405       7.418       0.000    
   7    0.000       7.645       7.649       7.637       7.567       7.452       7.408       7.397       7.389       7.379    
        7.375       7.402       7.413       7.411       7.389       7.385       7.389       7.396       0.000       0.000    
   8    0.000       7.431       7.439       7.441       7.430       7.415       7.409       7.403       7.390       7.370    
        7.348       7.365       7.378       7.384       7.381       7.377       7.373       7.380       0.000       0.000    
   9    0.000       0.000       7.421       7.423       7.424       7.423       7.419       7.410       7.392       7.359    
        7.289       7.350       7.373       7.380       7.374       7.358       7.337       7.359       7.377       7.390    
  10    0.000       0.000       7.428       7.429       7.430       7.430       7.425       7.415       7.396       7.369    
        7.340       7.358       7.374       7.378       7.366       7.332       7.253       7.334       7.371       7.387    

 HEAD WILL BE SAVED ON UNIT   51 AT END OF TIME STEP   69, STRESS PERIOD    2

 DRAWDOWN WILL BE SAVED ON UNIT   52 AT END OF TIME STEP   69, STRESS PERIOD    2
1
  VOLUMETRIC BUDGET FOR ENTIRE MODEL AT END OF TIME STEP   69, STRESS PERIOD   2
  ------------------------------------------------------------------------------

     CUMULATIVE VOLUMES      L**3       RATES FOR THIS TIME STEP      L**3/T
     ------------------                 ------------------------

           IN:                                      IN:
           ---                                      ---
             STORAGE =           0.0000               STORAGE =           0.0000
       CONSTANT HEAD =           0.0000         CONSTANT HEAD =           0.0000
               WELLS =           0.0000                 WELLS =           0.0000
       RIVER LEAKAGE =     1286284.6250         RIVER LEAKAGE =        6062.4678
            RECHARGE =       39352.2031              RECHARGE =         564.4509

            TOTAL IN =     1325636.8750              TOTAL IN =        6626.9185

          OUT:                                     OUT:
          ----                                     ----
             STORAGE =     1311659.0000               STORAGE =        6430.0625
       CONSTANT HEAD =           0.0000         CONSTANT HEAD =           0.0000
               WELLS =       13895.5137                 WELLS =         198.4721
       RIVER LEAKAGE =         204.2491         RIVER LEAKAGE =           0.0000
            RECHARGE =           0.0000              RECHARGE =           0.0000

           TOTAL OUT =     1325758.7500             TOTAL OUT =        6628.5347

            IN - OUT =        -121.8750              IN - OUT =          -1.6162

 PERCENT DISCREPANCY =          -0.01     PERCENT DISCREPANCY =          -0.02






         TIME SUMMARY AT END OF TIME STEP   69 IN STRESS PERIOD    2
                    SECONDS     MINUTES      HOURS       DAYS        YEARS
                    -----------------------------------------------------------
   TIME STEP LENGTH  86400.      1440.0      24.000      1.0000     2.73785E-03
 STRESS PERIOD TIME 5.96160E+06  99360.      1656.0      69.000     0.18891    
         TOTAL TIME 6.04800E+06 1.00800E+05  1680.0      70.000     0.19165    
1

 SOLVING FOR HEAD 

    ------------------------------------------------
       NWT REQUIRED            3 OUTER ITERATIONS 
       AND A TOTAL OF          3 INNER ITERATIONS.
    ------------------------------------------------

 OUTPUT CONTROL FOR STRESS PERIOD    2   TIME STEP   70
    SAVE HEAD FOR ALL LAYERS
    SAVE DRAWDOWN FOR ALL LAYERS
    SAVE BUDGET
    PRINT HEAD FOR ALL LAYERS
    PRINT BUDGET
1
              HEAD IN LAYER   1 AT END OF TIME STEP  70 IN STRESS PERIOD    2
  ---------------------------------------------------------------------------

            1           2           3           4           5           6           7           8           9          10
           11          12          13          14          15          16          17          18          19          20
 ........................................................................................................................
   1    0.000       0.000       0.000       0.000       0.000       7.303       7.294       7.319       7.338       7.351    
        7.361       7.410       7.736       8.355       7.729       7.398       7.361       7.368       0.000       0.000    
   2    0.000       0.000       0.000       0.000       7.337       7.353       7.323       7.374       7.381       7.390    
        7.396       7.432       7.689       8.359       7.667       7.372       7.354       7.366       0.000       0.000    
   3    0.000       0.000       0.000       7.385       7.437       7.628       7.698       7.674       7.624       7.619    
        7.618       7.617       7.680       8.364       7.581       7.308       7.345       7.368       0.000       0.000    
   4    0.000       0.000       7.530       7.590       7.779       8.356       8.349       8.354       8.362       8.360    
        8.359       8.341       7.938       8.371       7.582       7.368       7.365       7.381       0.000       0.000    
   5    0.000       0.000       8.124       8.291       8.372       8.347       7.838       7.691       7.643       7.650    
        7.771       8.354       8.370       8.331       7.562       7.391       7.384       7.399       7.417       0.000    
   6    0.000       8.373       8.374       8.366       8.210       7.708       7.486       7.434       7.420       7.418    
        7.453       7.605       7.630       7.599       7.427       7.387       7.393       7.405       7.418       0.000    
   7    0.000       7.648       7.652       7.640       7.569       7.454       7.409       7.397       7.389       7.379    
        7.376       7.403       7.414       7.412       7.389       7.385       7.389       7.396       0.000       0.000    
   8    0.000       7.433       7.440       7.442       7.431       7.416       7.409       7.403       7.390       7.370    
        7.348       7.365       7.379       7.384       7.381       7.377       7.373       7.380       0.000       0.000    
   9    0.000       0.000       7.421       7.423       7.424       7.423       7.419       7.410       7.392       7.359    
        7.289       7.350       7.373       7.380       7.374       7.358       7.337       7.359       7.377       7.390    
  10    0.000       0.000       7.428       7.429       7.430       7.430       7.425       7.415       7.396       7.369    
        7.340       7.358       7.374       7.378       7.366       7.332       7.253       7.334       7.371       7.387    

 HEAD WILL BE SAVED ON UNIT   51 AT END OF TIME STEP   70, STRESS PERIOD    2

 DRAWDOWN WILL BE SAVED ON UNIT   52 AT END OF TIME STEP   70, STRESS PERIOD    2
1
  VOLUMETRIC BUDGET FOR ENTIRE MODEL AT END OF TIME STEP   70, STRESS PERIOD   2
  ------------------------------------------------------------------------------

     CUMULATIVE VOLUMES      L**3       RATES FOR THIS TIME STEP      L**3/T
     ------------------                 ------------------------

           IN:                                      IN:
           ---                                      ---
             STORAGE =           0.0000               STORAGE =           0.0000
       CONSTANT HEAD =           0.0000         CONSTANT HEAD =           0.0000
               WELLS =           0.0000                 WELLS =           0.0000
       RIVER LEAKAGE =     1292309.3750         RIVER LEAKAGE =        6024.7207
            RECHARGE =       39916.6523              RECHARGE =         564.4509

            TOTAL IN =     1332226.0000              TOTAL IN =        6589.1714

          OUT:                                     OUT:
          ----                                     ----
             STORAGE =     1318051.2500               STORAGE =        6392.3062
       CONSTANT HEAD =           0.0000         CONSTANT HEAD =           0.0000
               WELLS =       14093.9854                 WELLS =         198.4721
       RIVER LEAKAGE =         204.2491         RIVER LEAKAGE =           0.0000
            RECHARGE =           0.0000              RECHARGE =           0.0000

           TOTAL OUT =     1332349.5000             TOTAL OUT =        6590.7783

            IN - OUT =        -123.5000              IN - OUT =          -1.6069

 PERCENT DISCREPANCY =          -0.01     PERCENT DISCREPANCY =          -0.02






         TIME SUMMARY AT END OF TIME STEP   70 IN STRESS PERIOD    2
                    SECONDS     MINUTES      HOURS       DAYS        YEARS
                    -----------------------------------------------------------
   TIME STEP LENGTH  86400.      1440.0      24.000      1.0000     2.73785E-03
 STRESS PERIOD TIME 6.04800E+06 1.00800E+05  1680.0      70.000     0.19165    
         TOTAL TIME 6.13440E+06 1.02240E+05  1704.0      71.000     0.19439    
1

 SOLVING FOR HEAD 

    ------------------------------------------------
       NWT REQUIRED            3 OUTER ITERATIONS 
       AND A TOTAL OF          3 INNER ITERATIONS.
    ------------------------------------------------

 OUTPUT CONTROL FOR STRESS PERIOD    2   TIME STEP   71
    SAVE HEAD FOR ALL LAYERS
    SAVE DRAWDOWN FOR ALL LAYERS
    SAVE BUDGET
    PRINT HEAD FOR ALL LAYERS
    PRINT BUDGET
1
              HEAD IN LAYER   1 AT END OF TIME STEP  71 IN STRESS PERIOD    2
  ---------------------------------------------------------------------------

            1           2           3           4           5           6           7           8           9          10
           11          12          13          14          15          16          17          18          19          20
 ........................................................................................................................
   1    0.000       0.000       0.000       0.000       0.000       7.304       7.294       7.319       7.339       7.351    
        7.361       7.412       7.740       8.355       7.733       7.399       7.362       7.368       0.000       0.000    
   2    0.000       0.000       0.000       0.000       7.338       7.354       7.325       7.376       7.382       7.391    
        7.398       7.434       7.692       8.359       7.670       7.373       7.354       7.367       0.000       0.000    
   3    0.000       0.000       0.000       7.387       7.439       7.631       7.702       7.677       7.627       7.622    
        7.621       7.620       7.685       8.364       7.584       7.309       7.345       7.368       0.000       0.000    
   4    0.000       0.000       7.534       7.593       7.783       8.356       8.350       8.354       8.362       8.360    
        8.359       8.342       7.943       8.371       7.584       7.369       7.365       7.381       0.000       0.000    
   5    0.000       0.000       8.128       8.292       8.372       8.347       7.842       7.695       7.646       7.654    
        7.775       8.354       8.370       8.331       7.564       7.392       7.384       7.399       7.417       0.000    
   6    0.000       8.373       8.374       8.366       8.212       7.712       7.489       7.436       7.421       7.420    
        7.455       7.608       7.633       7.601       7.428       7.388       7.393       7.405       7.418       0.000    
   7    0.000       7.651       7.655       7.643       7.572       7.456       7.409       7.398       7.389       7.379    
        7.376       7.404       7.415       7.413       7.389       7.385       7.389       7.396       0.000       0.000    
   8    0.000       7.434       7.442       7.443       7.432       7.416       7.409       7.403       7.390       7.371    
        7.348       7.366       7.379       7.384       7.382       7.377       7.373       7.380       0.000       0.000    
   9    0.000       0.000       7.422       7.423       7.424       7.423       7.419       7.410       7.392       7.359    
        7.289       7.350       7.373       7.380       7.374       7.358       7.337       7.359       7.377       7.390    
  10    0.000       0.000       7.428       7.429       7.430       7.430       7.425       7.415       7.396       7.369    
        7.340       7.358       7.374       7.378       7.366       7.332       7.253       7.334       7.371       7.387    

 HEAD WILL BE SAVED ON UNIT   51 AT END OF TIME STEP   71, STRESS PERIOD    2

 DRAWDOWN WILL BE SAVED ON UNIT   52 AT END OF TIME STEP   71, STRESS PERIOD    2
1
  VOLUMETRIC BUDGET FOR ENTIRE MODEL AT END OF TIME STEP   71, STRESS PERIOD   2
  ------------------------------------------------------------------------------

     CUMULATIVE VOLUMES      L**3       RATES FOR THIS TIME STEP      L**3/T
     ------------------                 ------------------------

           IN:                                      IN:
           ---                                      ---
             STORAGE =           0.0000               STORAGE =           0.0000
       CONSTANT HEAD =           0.0000         CONSTANT HEAD =           0.0000
               WELLS =           0.0000                 WELLS =           0.0000
       RIVER LEAKAGE =     1298297.0000         RIVER LEAKAGE =        5987.6099
            RECHARGE =       40481.1016              RECHARGE =         564.4509

            TOTAL IN =     1338778.1250              TOTAL IN =        6552.0605

          OUT:                                     OUT:
          ----                                     ----
             STORAGE =     1324406.3750               STORAGE =        6355.1860
       CONSTANT HEAD =           0.0000         CONSTANT HEAD =           0.0000
               WELLS =       14292.4570                 WELLS =         198.4721
       RIVER LEAKAGE =         204.2491         RIVER LEAKAGE =           0.0000
            RECHARGE =           0.0000              RECHARGE =           0.0000

           TOTAL OUT =     1338903.1250             TOTAL OUT =        6553.6582

            IN - OUT =        -125.0000              IN - OUT =          -1.5977

 PERCENT DISCREPANCY =          -0.01     PERCENT DISCREPANCY =          -0.02






         TIME SUMMARY AT END OF TIME STEP   71 IN STRESS PERIOD    2
                    SECONDS     MINUTES      HOURS       DAYS        YEARS
                    -----------------------------------------------------------
   TIME STEP LENGTH  86400.      1440.0      24.000      1.0000     2.73785E-03
 STRESS PERIOD TIME 6.13440E+06 1.02240E+05  1704.0      71.000     0.19439    
         TOTAL TIME 6.22080E+06 1.03680E+05  1728.0      72.000     0.19713    
1

 SOLVING FOR HEAD 

    ------------------------------------------------
       NWT REQUIRED            3 OUTER ITERATIONS 
       AND A TOTAL OF          3 INNER ITERATIONS.
    ------------------------------------------------

 OUTPUT CONTROL FOR STRESS PERIOD    2   TIME STEP   72
    SAVE HEAD FOR ALL LAYERS
    SAVE DRAWDOWN FOR ALL LAYERS
    SAVE BUDGET
    PRINT HEAD FOR ALL LAYERS
    PRINT BUDGET
1
              HEAD IN LAYER   1 AT END OF TIME STEP  72 IN STRESS PERIOD    2
  ---------------------------------------------------------------------------

            1           2           3           4           5           6           7           8           9          10
           11          12          13          14          15          16          17          18          19          20
 ........................................................................................................................
   1    0.000       0.000       0.000       0.000       0.000       7.304       7.295       7.320       7.339       7.352    
        7.362       7.414       7.744       8.355       7.736       7.401       7.362       7.368       0.000       0.000    
   2    0.000       0.000       0.000       0.000       7.339       7.356       7.327       7.377       7.383       7.392    
        7.399       7.436       7.696       8.359       7.674       7.374       7.355       7.367       0.000       0.000    
   3    0.000       0.000       0.000       7.388       7.441       7.634       7.705       7.680       7.630       7.625    
        7.624       7.624       7.689       8.364       7.587       7.310       7.345       7.368       0.000       0.000    
   4    0.000       0.000       7.538       7.597       7.787       8.357       8.350       8.354       8.362       8.360    
        8.359       8.342       7.948       8.371       7.587       7.370       7.365       7.381       0.000       0.000    
   5    0.000       0.000       8.131       8.294       8.372       8.347       7.846       7.698       7.649       7.657    
        7.779       8.354       8.370       8.331       7.566       7.392       7.384       7.399       7.417       0.000    
   6    0.000       8.373       8.374       8.366       8.213       7.716       7.492       7.437       7.423       7.421    
        7.457       7.610       7.635       7.604       7.430       7.388       7.393       7.405       7.418       0.000    
   7    0.000       7.654       7.658       7.646       7.575       7.458       7.410       7.398       7.390       7.380    
        7.377       7.405       7.416       7.414       7.390       7.385       7.389       7.396       0.000       0.000    
   8    0.000       7.435       7.443       7.444       7.432       7.417       7.410       7.403       7.390       7.371    
        7.348       7.366       7.379       7.384       7.382       7.377       7.373       7.380       0.000       0.000    
   9    0.000       0.000       7.422       7.424       7.424       7.423       7.419       7.410       7.392       7.360    
        7.289       7.350       7.373       7.380       7.374       7.358       7.337       7.359       7.377       7.390    
  10    0.000       0.000       7.428       7.429       7.430       7.430       7.425       7.415       7.396       7.369    
        7.340       7.358       7.374       7.378       7.366       7.332       7.253       7.334       7.371       7.387    

 HEAD WILL BE SAVED ON UNIT   51 AT END OF TIME STEP   72, STRESS PERIOD    2

 DRAWDOWN WILL BE SAVED ON UNIT   52 AT END OF TIME STEP   72, STRESS PERIOD    2
1
  VOLUMETRIC BUDGET FOR ENTIRE MODEL AT END OF TIME STEP   72, STRESS PERIOD   2
  ------------------------------------------------------------------------------

     CUMULATIVE VOLUMES      L**3       RATES FOR THIS TIME STEP      L**3/T
     ------------------                 ------------------------

           IN:                                      IN:
           ---                                      ---
             STORAGE =           0.0000               STORAGE =           0.0000
       CONSTANT HEAD =           0.0000         CONSTANT HEAD =           0.0000
               WELLS =           0.0000                 WELLS =           0.0000
       RIVER LEAKAGE =     1304248.1250         RIVER LEAKAGE =        5951.1211
            RECHARGE =       41045.5508              RECHARGE =         564.4509

            TOTAL IN =     1345293.6250              TOTAL IN =        6515.5718

          OUT:                                     OUT:
          ----                                     ----
             STORAGE =     1330725.1250               STORAGE =        6318.6880
       CONSTANT HEAD =           0.0000         CONSTANT HEAD =           0.0000
               WELLS =       14490.9287                 WELLS =         198.4721
       RIVER LEAKAGE =         204.2491         RIVER LEAKAGE =           0.0000
            RECHARGE =           0.0000              RECHARGE =           0.0000

           TOTAL OUT =     1345420.2500             TOTAL OUT =        6517.1602

            IN - OUT =        -126.6250              IN - OUT =          -1.5884

 PERCENT DISCREPANCY =          -0.01     PERCENT DISCREPANCY =          -0.02






         TIME SUMMARY AT END OF TIME STEP   72 IN STRESS PERIOD    2
                    SECONDS     MINUTES      HOURS       DAYS        YEARS
                    -----------------------------------------------------------
   TIME STEP LENGTH  86400.      1440.0      24.000      1.0000     2.73785E-03
 STRESS PERIOD TIME 6.22080E+06 1.03680E+05  1728.0      72.000     0.19713    
         TOTAL TIME 6.30720E+06 1.05120E+05  1752.0      73.000     0.19986    
1

 SOLVING FOR HEAD 

    ------------------------------------------------
       NWT REQUIRED            3 OUTER ITERATIONS 
       AND A TOTAL OF          3 INNER ITERATIONS.
    ------------------------------------------------

 OUTPUT CONTROL FOR STRESS PERIOD    2   TIME STEP   73
    SAVE HEAD FOR ALL LAYERS
    SAVE DRAWDOWN FOR ALL LAYERS
    SAVE BUDGET
    PRINT HEAD FOR ALL LAYERS
    PRINT BUDGET
1
              HEAD IN LAYER   1 AT END OF TIME STEP  73 IN STRESS PERIOD    2
  ---------------------------------------------------------------------------

            1           2           3           4           5           6           7           8           9          10
           11          12          13          14          15          16          17          18          19          20
 ........................................................................................................................
   1    0.000       0.000       0.000       0.000       0.000       7.304       7.295       7.320       7.339       7.352    
        7.362       7.415       7.748       8.355       7.740       7.402       7.362       7.368       0.000       0.000    
   2    0.000       0.000       0.000       0.000       7.340       7.357       7.328       7.379       7.384       7.393    
        7.400       7.438       7.700       8.359       7.677       7.376       7.355       7.367       0.000       0.000    
   3    0.000       0.000       0.000       7.390       7.444       7.637       7.708       7.684       7.633       7.628    
        7.627       7.627       7.694       8.364       7.590       7.311       7.345       7.368       0.000       0.000    
   4    0.000       0.000       7.542       7.600       7.791       8.357       8.350       8.354       8.362       8.360    
        8.359       8.342       7.953       8.371       7.590       7.371       7.365       7.381       0.000       0.000    
   5    0.000       0.000       8.135       8.295       8.372       8.347       7.850       7.702       7.652       7.660    
        7.783       8.354       8.371       8.331       7.569       7.393       7.384       7.399       7.417       0.000    
   6    0.000       8.373       8.374       8.366       8.215       7.719       7.494       7.439       7.424       7.423    
        7.459       7.613       7.638       7.606       7.431       7.388       7.393       7.405       7.418       0.000    
   7    0.000       7.657       7.661       7.648       7.578       7.459       7.411       7.398       7.390       7.380    
        7.378       7.406       7.417       7.414       7.390       7.385       7.389       7.396       0.000       0.000    
   8    0.000       7.437       7.444       7.445       7.433       7.417       7.410       7.403       7.391       7.371    
        7.348       7.366       7.379       7.385       7.382       7.377       7.373       7.380       0.000       0.000    
   9    0.000       0.000       7.422       7.424       7.424       7.423       7.419       7.410       7.393       7.360    
        7.289       7.350       7.373       7.380       7.374       7.358       7.337       7.359       7.377       7.390    
  10    0.000       0.000       7.428       7.429       7.430       7.430       7.425       7.415       7.396       7.369    
        7.340       7.358       7.374       7.378       7.366       7.332       7.253       7.334       7.371       7.387    

 HEAD WILL BE SAVED ON UNIT   51 AT END OF TIME STEP   73, STRESS PERIOD    2

 DRAWDOWN WILL BE SAVED ON UNIT   52 AT END OF TIME STEP   73, STRESS PERIOD    2
1
  VOLUMETRIC BUDGET FOR ENTIRE MODEL AT END OF TIME STEP   73, STRESS PERIOD   2
  ------------------------------------------------------------------------------

     CUMULATIVE VOLUMES      L**3       RATES FOR THIS TIME STEP      L**3/T
     ------------------                 ------------------------

           IN:                                      IN:
           ---                                      ---
             STORAGE =           0.0000               STORAGE =           0.0000
       CONSTANT HEAD =           0.0000         CONSTANT HEAD =           0.0000
               WELLS =           0.0000                 WELLS =           0.0000
       RIVER LEAKAGE =     1310163.3750         RIVER LEAKAGE =        5915.2573
            RECHARGE =       41610.0000              RECHARGE =         564.4509

            TOTAL IN =     1351773.3750              TOTAL IN =        6479.7080

          OUT:                                     OUT:
          ----                                     ----
             STORAGE =     1337008.0000               STORAGE =        6282.8149
       CONSTANT HEAD =           0.0000         CONSTANT HEAD =           0.0000
               WELLS =       14689.4004                 WELLS =         198.4721
       RIVER LEAKAGE =         204.2491         RIVER LEAKAGE =           0.0000
            RECHARGE =           0.0000              RECHARGE =           0.0000

           TOTAL OUT =     1351901.6250             TOTAL OUT =        6481.2871

            IN - OUT =        -128.2500              IN - OUT =          -1.5791

 PERCENT DISCREPANCY =          -0.01     PERCENT DISCREPANCY =          -0.02






         TIME SUMMARY AT END OF TIME STEP   73 IN STRESS PERIOD    2
                    SECONDS     MINUTES      HOURS       DAYS        YEARS
                    -----------------------------------------------------------
   TIME STEP LENGTH  86400.      1440.0      24.000      1.0000     2.73785E-03
 STRESS PERIOD TIME 6.30720E+06 1.05120E+05  1752.0      73.000     0.19986    
         TOTAL TIME 6.39360E+06 1.06560E+05  1776.0      74.000     0.20260    
1

 SOLVING FOR HEAD 

    ------------------------------------------------
       NWT REQUIRED            3 OUTER ITERATIONS 
       AND A TOTAL OF          3 INNER ITERATIONS.
    ------------------------------------------------

 OUTPUT CONTROL FOR STRESS PERIOD    2   TIME STEP   74
    SAVE HEAD FOR ALL LAYERS
    SAVE DRAWDOWN FOR ALL LAYERS
    SAVE BUDGET
    PRINT HEAD FOR ALL LAYERS
    PRINT BUDGET
1
              HEAD IN LAYER   1 AT END OF TIME STEP  74 IN STRESS PERIOD    2
  ---------------------------------------------------------------------------

            1           2           3           4           5           6           7           8           9          10
           11          12          13          14          15          16          17          18          19          20
 ........................................................................................................................
   1    0.000       0.000       0.000       0.000       0.000       7.305       7.296       7.320       7.340       7.352    
        7.363       7.417       7.751       8.356       7.744       7.404       7.363       7.368       0.000       0.000    
   2    0.000       0.000       0.000       0.000       7.340       7.358       7.330       7.381       7.386       7.394    
        7.402       7.440       7.704       8.359       7.681       7.377       7.355       7.367       0.000       0.000    
   3    0.000       0.000       0.000       7.391       7.446       7.640       7.711       7.687       7.636       7.631    
        7.630       7.631       7.698       8.364       7.593       7.312       7.346       7.368       0.000       0.000    
   4    0.000       0.000       7.546       7.604       7.795       8.357       8.350       8.354       8.362       8.360    
        8.359       8.342       7.958       8.371       7.593       7.372       7.366       7.381       0.000       0.000    
   5    0.000       0.000       8.138       8.295       8.373       8.348       7.854       7.706       7.655       7.664    
        7.787       8.354       8.371       8.332       7.571       7.394       7.385       7.399       7.417       0.000    
   6    0.000       8.373       8.374       8.366       8.217       7.723       7.497       7.440       7.425       7.424    
        7.461       7.615       7.641       7.609       7.432       7.389       7.393       7.405       7.418       0.000    
   7    0.000       7.660       7.664       7.651       7.581       7.461       7.412       7.399       7.390       7.380    
        7.378       7.407       7.418       7.415       7.390       7.385       7.389       7.396       0.000       0.000    
   8    0.000       7.438       7.445       7.446       7.434       7.417       7.410       7.403       7.391       7.371    
        7.348       7.366       7.379       7.385       7.382       7.377       7.373       7.380       0.000       0.000    
   9    0.000       0.000       7.422       7.424       7.424       7.423       7.419       7.410       7.393       7.360    
        7.289       7.350       7.373       7.380       7.374       7.358       7.337       7.359       7.377       7.390    
  10    0.000       0.000       7.428       7.430       7.431       7.430       7.425       7.415       7.396       7.369    
        7.340       7.358       7.374       7.378       7.366       7.332       7.253       7.334       7.371       7.387    

 HEAD WILL BE SAVED ON UNIT   51 AT END OF TIME STEP   74, STRESS PERIOD    2

 DRAWDOWN WILL BE SAVED ON UNIT   52 AT END OF TIME STEP   74, STRESS PERIOD    2
1
  VOLUMETRIC BUDGET FOR ENTIRE MODEL AT END OF TIME STEP   74, STRESS PERIOD   2
  ------------------------------------------------------------------------------

     CUMULATIVE VOLUMES      L**3       RATES FOR THIS TIME STEP      L**3/T
     ------------------                 ------------------------

           IN:                                      IN:
           ---                                      ---
             STORAGE =           0.0000               STORAGE =           0.0000
       CONSTANT HEAD =           0.0000         CONSTANT HEAD =           0.0000
               WELLS =           0.0000                 WELLS =           0.0000
       RIVER LEAKAGE =     1316043.2500         RIVER LEAKAGE =        5879.9355
            RECHARGE =       42174.4492              RECHARGE =         564.4509

            TOTAL IN =     1358217.7500              TOTAL IN =        6444.3862

          OUT:                                     OUT:
          ----                                     ----
             STORAGE =     1343255.5000               STORAGE =        6247.4844
       CONSTANT HEAD =           0.0000         CONSTANT HEAD =           0.0000
               WELLS =       14887.8721                 WELLS =         198.4721
       RIVER LEAKAGE =         204.2491         RIVER LEAKAGE =           0.0000
            RECHARGE =           0.0000              RECHARGE =           0.0000

           TOTAL OUT =     1358347.6250             TOTAL OUT =        6445.9565

            IN - OUT =        -129.8750              IN - OUT =          -1.5703

 PERCENT DISCREPANCY =          -0.01     PERCENT DISCREPANCY =          -0.02






         TIME SUMMARY AT END OF TIME STEP   74 IN STRESS PERIOD    2
                    SECONDS     MINUTES      HOURS       DAYS        YEARS
                    -----------------------------------------------------------
   TIME STEP LENGTH  86400.      1440.0      24.000      1.0000     2.73785E-03
 STRESS PERIOD TIME 6.39360E+06 1.06560E+05  1776.0      74.000     0.20260    
         TOTAL TIME 6.48000E+06 1.08000E+05  1800.0      75.000     0.20534    
1

 SOLVING FOR HEAD 

    ------------------------------------------------
       NWT REQUIRED            3 OUTER ITERATIONS 
       AND A TOTAL OF          3 INNER ITERATIONS.
    ------------------------------------------------

 OUTPUT CONTROL FOR STRESS PERIOD    2   TIME STEP   75
    SAVE HEAD FOR ALL LAYERS
    SAVE DRAWDOWN FOR ALL LAYERS
    SAVE BUDGET
    PRINT HEAD FOR ALL LAYERS
    PRINT BUDGET
1
              HEAD IN LAYER   1 AT END OF TIME STEP  75 IN STRESS PERIOD    2
  ---------------------------------------------------------------------------

            1           2           3           4           5           6           7           8           9          10
           11          12          13          14          15          16          17          18          19          20
 ........................................................................................................................
   1    0.000       0.000       0.000       0.000       0.000       7.305       7.296       7.321       7.340       7.353    
        7.364       7.419       7.755       8.356       7.747       7.405       7.363       7.368       0.000       0.000    
   2    0.000       0.000       0.000       0.000       7.341       7.360       7.332       7.382       7.387       7.396    
        7.403       7.443       7.708       8.359       7.684       7.378       7.355       7.367       0.000       0.000    
   3    0.000       0.000       0.000       7.393       7.448       7.642       7.715       7.690       7.640       7.634    
        7.633       7.634       7.703       8.364       7.596       7.313       7.346       7.368       0.000       0.000    
   4    0.000       0.000       7.549       7.608       7.798       8.357       8.351       8.355       8.362       8.360    
        8.359       8.343       7.963       8.371       7.595       7.373       7.366       7.381       0.000       0.000    
   5    0.000       0.000       8.141       8.296       8.373       8.348       7.857       7.709       7.659       7.667    
        7.790       8.355       8.371       8.332       7.573       7.395       7.385       7.399       7.417       0.000    
   6    0.000       8.373       8.374       8.367       8.218       7.727       7.499       7.442       7.426       7.426    
        7.464       7.618       7.644       7.611       7.434       7.389       7.393       7.405       7.419       0.000    
   7    0.000       7.663       7.667       7.654       7.583       7.463       7.412       7.399       7.390       7.381    
        7.379       7.408       7.419       7.416       7.391       7.386       7.389       7.396       0.000       0.000    
   8    0.000       7.440       7.446       7.447       7.435       7.418       7.410       7.403       7.391       7.371    
        7.349       7.366       7.380       7.385       7.382       7.377       7.373       7.380       0.000       0.000    
   9    0.000       0.000       7.423       7.424       7.425       7.423       7.419       7.410       7.393       7.360    
        7.289       7.350       7.373       7.380       7.374       7.358       7.337       7.360       7.377       7.390    
  10    0.000       0.000       7.428       7.430       7.431       7.430       7.425       7.415       7.396       7.369    
        7.340       7.358       7.374       7.378       7.366       7.332       7.253       7.334       7.371       7.387    

 HEAD WILL BE SAVED ON UNIT   51 AT END OF TIME STEP   75, STRESS PERIOD    2

 DRAWDOWN WILL BE SAVED ON UNIT   52 AT END OF TIME STEP   75, STRESS PERIOD    2
1
  VOLUMETRIC BUDGET FOR ENTIRE MODEL AT END OF TIME STEP   75, STRESS PERIOD   2
  ------------------------------------------------------------------------------

     CUMULATIVE VOLUMES      L**3       RATES FOR THIS TIME STEP      L**3/T
     ------------------                 ------------------------

           IN:                                      IN:
           ---                                      ---
             STORAGE =           0.0000               STORAGE =           0.0000
       CONSTANT HEAD =           0.0000         CONSTANT HEAD =           0.0000
               WELLS =           0.0000                 WELLS =           0.0000
       RIVER LEAKAGE =     1321888.5000         RIVER LEAKAGE =        5845.1938
            RECHARGE =       42738.8984              RECHARGE =         564.4509

            TOTAL IN =     1364627.3750              TOTAL IN =        6409.6445

          OUT:                                     OUT:
          ----                                     ----
             STORAGE =     1349468.2500               STORAGE =        6212.7339
       CONSTANT HEAD =           0.0000         CONSTANT HEAD =           0.0000
               WELLS =       15086.3438                 WELLS =         198.4721
       RIVER LEAKAGE =         204.2491         RIVER LEAKAGE =           0.0000
            RECHARGE =           0.0000              RECHARGE =           0.0000

           TOTAL OUT =     1364758.8750             TOTAL OUT =        6411.2061

            IN - OUT =        -131.5000              IN - OUT =          -1.5615

 PERCENT DISCREPANCY =          -0.01     PERCENT DISCREPANCY =          -0.02






         TIME SUMMARY AT END OF TIME STEP   75 IN STRESS PERIOD    2
                    SECONDS     MINUTES      HOURS       DAYS        YEARS
                    -----------------------------------------------------------
   TIME STEP LENGTH  86400.      1440.0      24.000      1.0000     2.73785E-03
 STRESS PERIOD TIME 6.48000E+06 1.08000E+05  1800.0      75.000     0.20534    
         TOTAL TIME 6.56640E+06 1.09440E+05  1824.0      76.000     0.20808    
1

 SOLVING FOR HEAD 

    ------------------------------------------------
       NWT REQUIRED            3 OUTER ITERATIONS 
       AND A TOTAL OF          3 INNER ITERATIONS.
    ------------------------------------------------

 OUTPUT CONTROL FOR STRESS PERIOD    2   TIME STEP   76
    SAVE HEAD FOR ALL LAYERS
    SAVE DRAWDOWN FOR ALL LAYERS
    SAVE BUDGET
    PRINT HEAD FOR ALL LAYERS
    PRINT BUDGET
1
              HEAD IN LAYER   1 AT END OF TIME STEP  76 IN STRESS PERIOD    2
  ---------------------------------------------------------------------------

            1           2           3           4           5           6           7           8           9          10
           11          12          13          14          15          16          17          18          19          20
 ........................................................................................................................
   1    0.000       0.000       0.000       0.000       0.000       7.306       7.297       7.321       7.340       7.353    
        7.364       7.420       7.758       8.356       7.751       7.406       7.363       7.368       0.000       0.000    
   2    0.000       0.000       0.000       0.000       7.342       7.361       7.334       7.384       7.388       7.397    
        7.405       7.445       7.711       8.360       7.687       7.379       7.356       7.367       0.000       0.000    
   3    0.000       0.000       0.000       7.395       7.451       7.645       7.718       7.694       7.643       7.637    
        7.636       7.638       7.707       8.365       7.599       7.314       7.346       7.368       0.000       0.000    
   4    0.000       0.000       7.553       7.611       7.802       8.357       8.351       8.355       8.362       8.360    
        8.360       8.343       7.968       8.371       7.598       7.374       7.366       7.381       0.000       0.000    
   5    0.000       0.000       8.144       8.297       8.373       8.348       7.861       7.713       7.662       7.670    
        7.794       8.355       8.371       8.332       7.575       7.395       7.385       7.399       7.417       0.000    
   6    0.000       8.373       8.375       8.367       8.220       7.730       7.502       7.444       7.428       7.427    
        7.466       7.620       7.646       7.614       7.435       7.389       7.393       7.405       7.419       0.000    
   7    0.000       7.666       7.669       7.657       7.586       7.465       7.413       7.399       7.391       7.381    
        7.379       7.409       7.421       7.417       7.391       7.386       7.389       7.396       0.000       0.000    
   8    0.000       7.441       7.448       7.448       7.436       7.418       7.410       7.403       7.391       7.371    
        7.349       7.367       7.380       7.385       7.382       7.377       7.373       7.380       0.000       0.000    
   9    0.000       0.000       7.423       7.425       7.425       7.423       7.419       7.410       7.393       7.360    
        7.290       7.350       7.373       7.380       7.375       7.358       7.337       7.360       7.377       7.390    
  10    0.000       0.000       7.428       7.430       7.431       7.430       7.425       7.415       7.397       7.369    
        7.340       7.358       7.374       7.378       7.366       7.332       7.253       7.334       7.371       7.387    

 HEAD WILL BE SAVED ON UNIT   51 AT END OF TIME STEP   76, STRESS PERIOD    2

 DRAWDOWN WILL BE SAVED ON UNIT   52 AT END OF TIME STEP   76, STRESS PERIOD    2
1
  VOLUMETRIC BUDGET FOR ENTIRE MODEL AT END OF TIME STEP   76, STRESS PERIOD   2
  ------------------------------------------------------------------------------

     CUMULATIVE VOLUMES      L**3       RATES FOR THIS TIME STEP      L**3/T
     ------------------                 ------------------------

           IN:                                      IN:
           ---                                      ---
             STORAGE =           0.0000               STORAGE =           0.0000
       CONSTANT HEAD =           0.0000         CONSTANT HEAD =           0.0000
               WELLS =           0.0000                 WELLS =           0.0000
       RIVER LEAKAGE =     1327699.5000         RIVER LEAKAGE =        5811.0029
            RECHARGE =       43303.3477              RECHARGE =         564.4509

            TOTAL IN =     1371002.8750              TOTAL IN =        6375.4536

          OUT:                                     OUT:
          ----                                     ----
             STORAGE =     1355646.7500               STORAGE =        6178.5342
       CONSTANT HEAD =           0.0000         CONSTANT HEAD =           0.0000
               WELLS =       15284.8154                 WELLS =         198.4721
       RIVER LEAKAGE =         204.2491         RIVER LEAKAGE =           0.0000
            RECHARGE =           0.0000              RECHARGE =           0.0000

           TOTAL OUT =     1371135.8750             TOTAL OUT =        6377.0063

            IN - OUT =        -133.0000              IN - OUT =          -1.5527

 PERCENT DISCREPANCY =          -0.01     PERCENT DISCREPANCY =          -0.02






         TIME SUMMARY AT END OF TIME STEP   76 IN STRESS PERIOD    2
                    SECONDS     MINUTES      HOURS       DAYS        YEARS
                    -----------------------------------------------------------
   TIME STEP LENGTH  86400.      1440.0      24.000      1.0000     2.73785E-03
 STRESS PERIOD TIME 6.56640E+06 1.09440E+05  1824.0      76.000     0.20808    
         TOTAL TIME 6.65280E+06 1.10880E+05  1848.0      77.000     0.21081    
1

 SOLVING FOR HEAD 

    ------------------------------------------------
       NWT REQUIRED            3 OUTER ITERATIONS 
       AND A TOTAL OF          3 INNER ITERATIONS.
    ------------------------------------------------

 OUTPUT CONTROL FOR STRESS PERIOD    2   TIME STEP   77
    SAVE HEAD FOR ALL LAYERS
    SAVE DRAWDOWN FOR ALL LAYERS
    SAVE BUDGET
    PRINT HEAD FOR ALL LAYERS
    PRINT BUDGET
1
              HEAD IN LAYER   1 AT END OF TIME STEP  77 IN STRESS PERIOD    2
  ---------------------------------------------------------------------------

            1           2           3           4           5           6           7           8           9          10
           11          12          13          14          15          16          17          18          19          20
 ........................................................................................................................
   1    0.000       0.000       0.000       0.000       0.000       7.306       7.297       7.322       7.341       7.353    
        7.365       7.422       7.762       8.356       7.754       7.408       7.363       7.368       0.000       0.000    
   2    0.000       0.000       0.000       0.000       7.343       7.363       7.335       7.386       7.390       7.398    
        7.406       7.447       7.715       8.360       7.690       7.381       7.356       7.367       0.000       0.000    
   3    0.000       0.000       0.000       7.396       7.453       7.648       7.721       7.697       7.646       7.640    
        7.639       7.641       7.712       8.365       7.602       7.315       7.346       7.368       0.000       0.000    
   4    0.000       0.000       7.557       7.615       7.805       8.357       8.351       8.355       8.362       8.361    
        8.360       8.343       7.972       8.371       7.600       7.375       7.366       7.381       0.000       0.000    
   5    0.000       0.000       8.147       8.298       8.373       8.348       7.865       7.716       7.665       7.673    
        7.797       8.355       8.371       8.332       7.578       7.396       7.385       7.399       7.417       0.000    
   6    0.000       8.373       8.375       8.367       8.221       7.734       7.504       7.445       7.429       7.428    
        7.468       7.623       7.649       7.616       7.436       7.390       7.393       7.405       7.419       0.000    
   7    0.000       7.669       7.672       7.660       7.589       7.466       7.414       7.400       7.391       7.381    
        7.380       7.410       7.422       7.418       7.392       7.386       7.389       7.396       0.000       0.000    
   8    0.000       7.443       7.449       7.450       7.437       7.419       7.410       7.403       7.391       7.371    
        7.349       7.367       7.380       7.385       7.382       7.377       7.373       7.380       0.000       0.000    
   9    0.000       0.000       7.423       7.425       7.425       7.423       7.420       7.411       7.393       7.360    
        7.290       7.350       7.373       7.380       7.375       7.358       7.337       7.360       7.377       7.390    
  10    0.000       0.000       7.428       7.430       7.431       7.430       7.425       7.415       7.397       7.369    
        7.340       7.359       7.374       7.378       7.366       7.332       7.254       7.334       7.371       7.387    

 HEAD WILL BE SAVED ON UNIT   51 AT END OF TIME STEP   77, STRESS PERIOD    2

 DRAWDOWN WILL BE SAVED ON UNIT   52 AT END OF TIME STEP   77, STRESS PERIOD    2
1
  VOLUMETRIC BUDGET FOR ENTIRE MODEL AT END OF TIME STEP   77, STRESS PERIOD   2
  ------------------------------------------------------------------------------

     CUMULATIVE VOLUMES      L**3       RATES FOR THIS TIME STEP      L**3/T
     ------------------                 ------------------------

           IN:                                      IN:
           ---                                      ---
             STORAGE =           0.0000               STORAGE =           0.0000
       CONSTANT HEAD =           0.0000         CONSTANT HEAD =           0.0000
               WELLS =           0.0000                 WELLS =           0.0000
       RIVER LEAKAGE =     1333476.8750         RIVER LEAKAGE =        5777.3584
            RECHARGE =       43867.7969              RECHARGE =         564.4509

            TOTAL IN =     1377344.6250              TOTAL IN =        6341.8091

          OUT:                                     OUT:
          ----                                     ----
             STORAGE =     1361791.6250               STORAGE =        6144.8809
       CONSTANT HEAD =           0.0000         CONSTANT HEAD =           0.0000
               WELLS =       15483.2871                 WELLS =         198.4721
       RIVER LEAKAGE =         204.2491         RIVER LEAKAGE =           0.0000
            RECHARGE =           0.0000              RECHARGE =           0.0000

           TOTAL OUT =     1377479.1250             TOTAL OUT =        6343.3530

            IN - OUT =        -134.5000              IN - OUT =          -1.5439

 PERCENT DISCREPANCY =          -0.01     PERCENT DISCREPANCY =          -0.02






         TIME SUMMARY AT END OF TIME STEP   77 IN STRESS PERIOD    2
                    SECONDS     MINUTES      HOURS       DAYS        YEARS
                    -----------------------------------------------------------
   TIME STEP LENGTH  86400.      1440.0      24.000      1.0000     2.73785E-03
 STRESS PERIOD TIME 6.65280E+06 1.10880E+05  1848.0      77.000     0.21081    
         TOTAL TIME 6.73920E+06 1.12320E+05  1872.0      78.000     0.21355    
1

 SOLVING FOR HEAD 

    ------------------------------------------------
       NWT REQUIRED            3 OUTER ITERATIONS 
       AND A TOTAL OF          3 INNER ITERATIONS.
    ------------------------------------------------

 OUTPUT CONTROL FOR STRESS PERIOD    2   TIME STEP   78
    SAVE HEAD FOR ALL LAYERS
    SAVE DRAWDOWN FOR ALL LAYERS
    SAVE BUDGET
    PRINT HEAD FOR ALL LAYERS
    PRINT BUDGET
1
              HEAD IN LAYER   1 AT END OF TIME STEP  78 IN STRESS PERIOD    2
  ---------------------------------------------------------------------------

            1           2           3           4           5           6           7           8           9          10
           11          12          13          14          15          16          17          18          19          20
 ........................................................................................................................
   1    0.000       0.000       0.000       0.000       0.000       7.306       7.298       7.322       7.341       7.354    
        7.365       7.423       7.766       8.356       7.758       7.409       7.364       7.368       0.000       0.000    
   2    0.000       0.000       0.000       0.000       7.344       7.364       7.337       7.387       7.391       7.399    
        7.407       7.449       7.719       8.360       7.694       7.382       7.356       7.367       0.000       0.000    
   3    0.000       0.000       0.000       7.398       7.455       7.651       7.724       7.700       7.649       7.643    
        7.642       7.644       7.716       8.365       7.605       7.316       7.347       7.368       0.000       0.000    
   4    0.000       0.000       7.561       7.618       7.809       8.357       8.351       8.355       8.362       8.361    
        8.360       8.344       7.977       8.371       7.603       7.376       7.366       7.381       0.000       0.000    
   5    0.000       0.000       8.150       8.299       8.373       8.349       7.869       7.720       7.668       7.677    
        7.801       8.355       8.371       8.332       7.580       7.397       7.385       7.400       7.417       0.000    
   6    0.000       8.373       8.375       8.367       8.222       7.737       7.507       7.447       7.430       7.430    
        7.470       7.625       7.652       7.619       7.438       7.390       7.393       7.405       7.419       0.000    
   7    0.000       7.672       7.675       7.662       7.591       7.468       7.415       7.400       7.391       7.382    
        7.380       7.411       7.423       7.419       7.392       7.386       7.389       7.396       0.000       0.000    
   8    0.000       7.444       7.450       7.451       7.438       7.419       7.411       7.403       7.391       7.371    
        7.349       7.367       7.380       7.386       7.382       7.377       7.373       7.380       0.000       0.000    
   9    0.000       0.000       7.423       7.425       7.425       7.423       7.420       7.411       7.393       7.360    
        7.290       7.350       7.373       7.380       7.375       7.358       7.337       7.360       7.378       7.390    
  10    0.000       0.000       7.428       7.430       7.431       7.430       7.425       7.415       7.397       7.369    
        7.340       7.359       7.374       7.378       7.366       7.332       7.254       7.334       7.371       7.387    

 HEAD WILL BE SAVED ON UNIT   51 AT END OF TIME STEP   78, STRESS PERIOD    2

 DRAWDOWN WILL BE SAVED ON UNIT   52 AT END OF TIME STEP   78, STRESS PERIOD    2
1
  VOLUMETRIC BUDGET FOR ENTIRE MODEL AT END OF TIME STEP   78, STRESS PERIOD   2
  ------------------------------------------------------------------------------

     CUMULATIVE VOLUMES      L**3       RATES FOR THIS TIME STEP      L**3/T
     ------------------                 ------------------------

           IN:                                      IN:
           ---                                      ---
             STORAGE =           0.0000               STORAGE =           0.0000
       CONSTANT HEAD =           0.0000         CONSTANT HEAD =           0.0000
               WELLS =           0.0000                 WELLS =           0.0000
       RIVER LEAKAGE =     1339221.1250         RIVER LEAKAGE =        5744.2236
            RECHARGE =       44432.2461              RECHARGE =         564.4509

            TOTAL IN =     1383653.3750              TOTAL IN =        6308.6743

          OUT:                                     OUT:
          ----                                     ----
             STORAGE =     1367903.3750               STORAGE =        6111.7378
       CONSTANT HEAD =           0.0000         CONSTANT HEAD =           0.0000
               WELLS =       15681.7588                 WELLS =         198.4721
       RIVER LEAKAGE =         204.2491         RIVER LEAKAGE =           0.0000
            RECHARGE =           0.0000              RECHARGE =           0.0000

           TOTAL OUT =     1383789.3750             TOTAL OUT =        6310.2100

            IN - OUT =        -136.0000              IN - OUT =          -1.5356

 PERCENT DISCREPANCY =          -0.01     PERCENT DISCREPANCY =          -0.02






         TIME SUMMARY AT END OF TIME STEP   78 IN STRESS PERIOD    2
                    SECONDS     MINUTES      HOURS       DAYS        YEARS
                    -----------------------------------------------------------
   TIME STEP LENGTH  86400.      1440.0      24.000      1.0000     2.73785E-03
 STRESS PERIOD TIME 6.73920E+06 1.12320E+05  1872.0      78.000     0.21355    
         TOTAL TIME 6.82560E+06 1.13760E+05  1896.0      79.000     0.21629    
1

 SOLVING FOR HEAD 

    ------------------------------------------------
       NWT REQUIRED            3 OUTER ITERATIONS 
       AND A TOTAL OF          3 INNER ITERATIONS.
    ------------------------------------------------

 OUTPUT CONTROL FOR STRESS PERIOD    2   TIME STEP   79
    SAVE HEAD FOR ALL LAYERS
    SAVE DRAWDOWN FOR ALL LAYERS
    SAVE BUDGET
    PRINT HEAD FOR ALL LAYERS
    PRINT BUDGET
1
              HEAD IN LAYER   1 AT END OF TIME STEP  79 IN STRESS PERIOD    2
  ---------------------------------------------------------------------------

            1           2           3           4           5           6           7           8           9          10
           11          12          13          14          15          16          17          18          19          20
 ........................................................................................................................
   1    0.000       0.000       0.000       0.000       0.000       7.307       7.298       7.323       7.341       7.354    
        7.366       7.425       7.769       8.357       7.761       7.411       7.364       7.368       0.000       0.000    
   2    0.000       0.000       0.000       0.000       7.345       7.365       7.339       7.389       7.392       7.401    
        7.409       7.451       7.722       8.360       7.697       7.383       7.356       7.367       0.000       0.000    
   3    0.000       0.000       0.000       7.400       7.457       7.654       7.727       7.703       7.652       7.646    
        7.645       7.648       7.721       8.365       7.608       7.317       7.347       7.368       0.000       0.000    
   4    0.000       0.000       7.565       7.622       7.812       8.358       8.351       8.355       8.362       8.361    
        8.360       8.344       7.982       8.371       7.606       7.377       7.367       7.381       0.000       0.000    
   5    0.000       0.000       8.153       8.300       8.373       8.349       7.872       7.723       7.671       7.680    
        7.804       8.355       8.371       8.332       7.582       7.398       7.385       7.400       7.417       0.000    
   6    0.000       8.373       8.375       8.367       8.224       7.740       7.509       7.449       7.432       7.431    
        7.472       7.628       7.654       7.621       7.439       7.390       7.393       7.405       7.419       0.000    
   7    0.000       7.675       7.678       7.665       7.594       7.470       7.416       7.401       7.392       7.382    
        7.381       7.412       7.424       7.420       7.392       7.386       7.389       7.396       0.000       0.000    
   8    0.000       7.446       7.451       7.452       7.439       7.420       7.411       7.404       7.391       7.371    
        7.349       7.367       7.381       7.386       7.382       7.377       7.373       7.380       0.000       0.000    
   9    0.000       0.000       7.424       7.425       7.425       7.423       7.420       7.411       7.393       7.360    
        7.290       7.350       7.373       7.380       7.375       7.358       7.337       7.360       7.378       7.390    
  10    0.000       0.000       7.429       7.430       7.431       7.430       7.426       7.415       7.397       7.369    
        7.340       7.359       7.374       7.378       7.367       7.332       7.254       7.334       7.371       7.387    

 HEAD WILL BE SAVED ON UNIT   51 AT END OF TIME STEP   79, STRESS PERIOD    2

 DRAWDOWN WILL BE SAVED ON UNIT   52 AT END OF TIME STEP   79, STRESS PERIOD    2
1
  VOLUMETRIC BUDGET FOR ENTIRE MODEL AT END OF TIME STEP   79, STRESS PERIOD   2
  ------------------------------------------------------------------------------

     CUMULATIVE VOLUMES      L**3       RATES FOR THIS TIME STEP      L**3/T
     ------------------                 ------------------------

           IN:                                      IN:
           ---                                      ---
             STORAGE =           0.0000               STORAGE =           0.0000
       CONSTANT HEAD =           0.0000         CONSTANT HEAD =           0.0000
               WELLS =           0.0000                 WELLS =           0.0000
       RIVER LEAKAGE =     1344932.7500         RIVER LEAKAGE =        5711.5811
            RECHARGE =       44996.6953              RECHARGE =         564.4509

            TOTAL IN =     1389929.5000              TOTAL IN =        6276.0317

          OUT:                                     OUT:
          ----                                     ----
             STORAGE =     1373982.5000               STORAGE =        6079.0869
       CONSTANT HEAD =           0.0000         CONSTANT HEAD =           0.0000
               WELLS =       15880.2305                 WELLS =         198.4721
       RIVER LEAKAGE =         204.2491         RIVER LEAKAGE =           0.0000
            RECHARGE =           0.0000              RECHARGE =           0.0000

           TOTAL OUT =     1390067.0000             TOTAL OUT =        6277.5591

            IN - OUT =        -137.5000              IN - OUT =          -1.5273

 PERCENT DISCREPANCY =          -0.01     PERCENT DISCREPANCY =          -0.02






         TIME SUMMARY AT END OF TIME STEP   79 IN STRESS PERIOD    2
                    SECONDS     MINUTES      HOURS       DAYS        YEARS
                    -----------------------------------------------------------
   TIME STEP LENGTH  86400.      1440.0      24.000      1.0000     2.73785E-03
 STRESS PERIOD TIME 6.82560E+06 1.13760E+05  1896.0      79.000     0.21629    
         TOTAL TIME 6.91200E+06 1.15200E+05  1920.0      80.000     0.21903    
1

 SOLVING FOR HEAD 

    ------------------------------------------------
       NWT REQUIRED            3 OUTER ITERATIONS 
       AND A TOTAL OF          3 INNER ITERATIONS.
    ------------------------------------------------

 OUTPUT CONTROL FOR STRESS PERIOD    2   TIME STEP   80
    SAVE HEAD FOR ALL LAYERS
    SAVE DRAWDOWN FOR ALL LAYERS
    SAVE BUDGET
    PRINT HEAD FOR ALL LAYERS
    PRINT BUDGET
1
              HEAD IN LAYER   1 AT END OF TIME STEP  80 IN STRESS PERIOD    2
  ---------------------------------------------------------------------------

            1           2           3           4           5           6           7           8           9          10
           11          12          13          14          15          16          17          18          19          20
 ........................................................................................................................
   1    0.000       0.000       0.000       0.000       0.000       7.307       7.299       7.323       7.342       7.354    
        7.366       7.427       7.772       8.357       7.765       7.412       7.364       7.368       0.000       0.000    
   2    0.000       0.000       0.000       0.000       7.346       7.367       7.341       7.391       7.394       7.402    
        7.410       7.454       7.726       8.360       7.700       7.385       7.357       7.367       0.000       0.000    
   3    0.000       0.000       0.000       7.401       7.460       7.657       7.730       7.706       7.655       7.648    
        7.648       7.651       7.725       8.365       7.610       7.318       7.347       7.369       0.000       0.000    
   4    0.000       0.000       7.569       7.625       7.816       8.358       8.352       8.355       8.363       8.361    
        8.360       8.344       7.986       8.371       7.608       7.377       7.367       7.381       0.000       0.000    
   5    0.000       0.000       8.156       8.301       8.373       8.349       7.876       7.726       7.674       7.683    
        7.808       8.355       8.371       8.333       7.584       7.398       7.385       7.400       7.417       0.000    
   6    0.000       8.374       8.375       8.367       8.225       7.744       7.512       7.450       7.433       7.433    
        7.474       7.630       7.657       7.623       7.440       7.391       7.393       7.405       7.419       0.000    
   7    0.000       7.678       7.681       7.668       7.597       7.472       7.416       7.401       7.392       7.382    
        7.382       7.413       7.425       7.421       7.393       7.386       7.389       7.396       0.000       0.000    
   8    0.000       7.447       7.453       7.453       7.440       7.420       7.411       7.404       7.391       7.371    
        7.349       7.368       7.381       7.386       7.382       7.377       7.373       7.380       0.000       0.000    
   9    0.000       0.000       7.424       7.426       7.426       7.424       7.420       7.411       7.393       7.360    
        7.290       7.350       7.373       7.380       7.375       7.358       7.337       7.360       7.378       7.390    
  10    0.000       0.000       7.429       7.430       7.431       7.430       7.426       7.415       7.397       7.369    
        7.340       7.359       7.374       7.378       7.367       7.332       7.254       7.334       7.371       7.387    

 HEAD WILL BE SAVED ON UNIT   51 AT END OF TIME STEP   80, STRESS PERIOD    2

 DRAWDOWN WILL BE SAVED ON UNIT   52 AT END OF TIME STEP   80, STRESS PERIOD    2
1
  VOLUMETRIC BUDGET FOR ENTIRE MODEL AT END OF TIME STEP   80, STRESS PERIOD   2
  ------------------------------------------------------------------------------

     CUMULATIVE VOLUMES      L**3       RATES FOR THIS TIME STEP      L**3/T
     ------------------                 ------------------------

           IN:                                      IN:
           ---                                      ---
             STORAGE =           0.0000               STORAGE =           0.0000
       CONSTANT HEAD =           0.0000         CONSTANT HEAD =           0.0000
               WELLS =           0.0000                 WELLS =           0.0000
       RIVER LEAKAGE =     1350612.1250         RIVER LEAKAGE =        5679.4180
            RECHARGE =       45561.1445              RECHARGE =         564.4509

            TOTAL IN =     1396173.2500              TOTAL IN =        6243.8687

          OUT:                                     OUT:
          ----                                     ----
             STORAGE =     1380029.3750               STORAGE =        6046.9160
       CONSTANT HEAD =           0.0000         CONSTANT HEAD =           0.0000
               WELLS =       16078.7021                 WELLS =         198.4721
       RIVER LEAKAGE =         204.2491         RIVER LEAKAGE =           0.0000
            RECHARGE =           0.0000              RECHARGE =           0.0000

           TOTAL OUT =     1396312.3750             TOTAL OUT =        6245.3882

            IN - OUT =        -139.1250              IN - OUT =          -1.5195

 PERCENT DISCREPANCY =          -0.01     PERCENT DISCREPANCY =          -0.02






         TIME SUMMARY AT END OF TIME STEP   80 IN STRESS PERIOD    2
                    SECONDS     MINUTES      HOURS       DAYS        YEARS
                    -----------------------------------------------------------
   TIME STEP LENGTH  86400.      1440.0      24.000      1.0000     2.73785E-03
 STRESS PERIOD TIME 6.91200E+06 1.15200E+05  1920.0      80.000     0.21903    
         TOTAL TIME 6.99840E+06 1.16640E+05  1944.0      81.000     0.22177    
1

 SOLVING FOR HEAD 

    ------------------------------------------------
       NWT REQUIRED            3 OUTER ITERATIONS 
       AND A TOTAL OF          3 INNER ITERATIONS.
    ------------------------------------------------

 OUTPUT CONTROL FOR STRESS PERIOD    2   TIME STEP   81
    SAVE HEAD FOR ALL LAYERS
    SAVE DRAWDOWN FOR ALL LAYERS
    SAVE BUDGET
    PRINT HEAD FOR ALL LAYERS
    PRINT BUDGET
1
              HEAD IN LAYER   1 AT END OF TIME STEP  81 IN STRESS PERIOD    2
  ---------------------------------------------------------------------------

            1           2           3           4           5           6           7           8           9          10
           11          12          13          14          15          16          17          18          19          20
 ........................................................................................................................
   1    0.000       0.000       0.000       0.000       0.000       7.307       7.299       7.324       7.342       7.355    
        7.367       7.428       7.776       8.357       7.768       7.413       7.365       7.369       0.000       0.000    
   2    0.000       0.000       0.000       0.000       7.346       7.368       7.342       7.392       7.395       7.403    
        7.411       7.456       7.730       8.360       7.703       7.386       7.357       7.367       0.000       0.000    
   3    0.000       0.000       0.000       7.403       7.462       7.659       7.733       7.709       7.658       7.651    
        7.650       7.654       7.729       8.365       7.613       7.319       7.347       7.369       0.000       0.000    
   4    0.000       0.000       7.573       7.629       7.819       8.358       8.352       8.355       8.363       8.361    
        8.360       8.345       7.990       8.372       7.611       7.378       7.367       7.382       0.000       0.000    
   5    0.000       0.000       8.159       8.301       8.373       8.349       7.879       7.730       7.677       7.686    
        7.811       8.355       8.371       8.333       7.586       7.399       7.386       7.400       7.417       0.000    
   6    0.000       8.374       8.375       8.367       8.226       7.747       7.514       7.452       7.434       7.434    
        7.476       7.632       7.659       7.625       7.441       7.391       7.393       7.405       7.419       0.000    
   7    0.000       7.680       7.683       7.670       7.599       7.473       7.417       7.402       7.392       7.383    
        7.382       7.414       7.426       7.422       7.393       7.386       7.389       7.396       0.000       0.000    
   8    0.000       7.448       7.454       7.454       7.440       7.421       7.411       7.404       7.391       7.371    
        7.349       7.368       7.381       7.386       7.383       7.377       7.373       7.380       0.000       0.000    
   9    0.000       0.000       7.424       7.426       7.426       7.424       7.420       7.411       7.393       7.360    
        7.290       7.350       7.373       7.380       7.375       7.358       7.337       7.360       7.378       7.390    
  10    0.000       0.000       7.429       7.430       7.431       7.430       7.426       7.415       7.397       7.369    
        7.340       7.359       7.374       7.378       7.367       7.332       7.254       7.334       7.371       7.387    

 HEAD WILL BE SAVED ON UNIT   51 AT END OF TIME STEP   81, STRESS PERIOD    2

 DRAWDOWN WILL BE SAVED ON UNIT   52 AT END OF TIME STEP   81, STRESS PERIOD    2
1
  VOLUMETRIC BUDGET FOR ENTIRE MODEL AT END OF TIME STEP   81, STRESS PERIOD   2
  ------------------------------------------------------------------------------

     CUMULATIVE VOLUMES      L**3       RATES FOR THIS TIME STEP      L**3/T
     ------------------                 ------------------------

           IN:                                      IN:
           ---                                      ---
             STORAGE =           0.0000               STORAGE =           0.0000
       CONSTANT HEAD =           0.0000         CONSTANT HEAD =           0.0000
               WELLS =           0.0000                 WELLS =           0.0000
       RIVER LEAKAGE =     1356259.8750         RIVER LEAKAGE =        5647.7241
            RECHARGE =       46125.5938              RECHARGE =         564.4509

            TOTAL IN =     1402385.5000              TOTAL IN =        6212.1748

          OUT:                                     OUT:
          ----                                     ----
             STORAGE =     1386044.6250               STORAGE =        6015.2139
       CONSTANT HEAD =           0.0000         CONSTANT HEAD =           0.0000
               WELLS =       16277.1738                 WELLS =         198.4721
       RIVER LEAKAGE =         204.2491         RIVER LEAKAGE =           0.0000
            RECHARGE =           0.0000              RECHARGE =           0.0000

           TOTAL OUT =     1402526.0000             TOTAL OUT =        6213.6860

            IN - OUT =        -140.5000              IN - OUT =          -1.5112

 PERCENT DISCREPANCY =          -0.01     PERCENT DISCREPANCY =          -0.02






         TIME SUMMARY AT END OF TIME STEP   81 IN STRESS PERIOD    2
                    SECONDS     MINUTES      HOURS       DAYS        YEARS
                    -----------------------------------------------------------
   TIME STEP LENGTH  86400.      1440.0      24.000      1.0000     2.73785E-03
 STRESS PERIOD TIME 6.99840E+06 1.16640E+05  1944.0      81.000     0.22177    
         TOTAL TIME 7.08480E+06 1.18080E+05  1968.0      82.000     0.22450    
1

 SOLVING FOR HEAD 

    ------------------------------------------------
       NWT REQUIRED            3 OUTER ITERATIONS 
       AND A TOTAL OF          3 INNER ITERATIONS.
    ------------------------------------------------

 OUTPUT CONTROL FOR STRESS PERIOD    2   TIME STEP   82
    SAVE HEAD FOR ALL LAYERS
    SAVE DRAWDOWN FOR ALL LAYERS
    SAVE BUDGET
    PRINT HEAD FOR ALL LAYERS
    PRINT BUDGET
1
              HEAD IN LAYER   1 AT END OF TIME STEP  82 IN STRESS PERIOD    2
  ---------------------------------------------------------------------------

            1           2           3           4           5           6           7           8           9          10
           11          12          13          14          15          16          17          18          19          20
 ........................................................................................................................
   1    0.000       0.000       0.000       0.000       0.000       7.308       7.300       7.324       7.342       7.355    
        7.368       7.430       7.779       8.357       7.771       7.415       7.365       7.369       0.000       0.000    
   2    0.000       0.000       0.000       0.000       7.347       7.369       7.344       7.394       7.396       7.404    
        7.413       7.458       7.733       8.360       7.706       7.387       7.357       7.367       0.000       0.000    
   3    0.000       0.000       0.000       7.405       7.464       7.662       7.736       7.712       7.661       7.654    
        7.653       7.658       7.734       8.365       7.616       7.320       7.347       7.369       0.000       0.000    
   4    0.000       0.000       7.577       7.632       7.822       8.358       8.352       8.356       8.363       8.361    
        8.360       8.345       7.995       8.372       7.613       7.379       7.367       7.382       0.000       0.000    
   5    0.000       0.000       8.162       8.302       8.373       8.350       7.883       7.733       7.680       7.689    
        7.814       8.356       8.371       8.333       7.588       7.400       7.386       7.400       7.417       0.000    
   6    0.000       8.374       8.375       8.367       8.227       7.750       7.517       7.453       7.436       7.436    
        7.478       7.635       7.662       7.628       7.443       7.391       7.393       7.405       7.419       0.000    
   7    0.000       7.683       7.686       7.673       7.602       7.475       7.418       7.402       7.393       7.383    
        7.383       7.415       7.427       7.423       7.394       7.386       7.389       7.396       0.000       0.000    
   8    0.000       7.450       7.455       7.455       7.441       7.421       7.411       7.404       7.391       7.371    
        7.349       7.368       7.382       7.386       7.383       7.377       7.373       7.380       0.000       0.000    
   9    0.000       0.000       7.425       7.426       7.426       7.424       7.420       7.411       7.393       7.360    
        7.290       7.350       7.374       7.380       7.375       7.358       7.337       7.360       7.378       7.390    
  10    0.000       0.000       7.429       7.430       7.431       7.430       7.426       7.415       7.397       7.369    
        7.340       7.359       7.374       7.378       7.367       7.332       7.254       7.334       7.371       7.387    

 HEAD WILL BE SAVED ON UNIT   51 AT END OF TIME STEP   82, STRESS PERIOD    2

 DRAWDOWN WILL BE SAVED ON UNIT   52 AT END OF TIME STEP   82, STRESS PERIOD    2
1
  VOLUMETRIC BUDGET FOR ENTIRE MODEL AT END OF TIME STEP   82, STRESS PERIOD   2
  ------------------------------------------------------------------------------

     CUMULATIVE VOLUMES      L**3       RATES FOR THIS TIME STEP      L**3/T
     ------------------                 ------------------------

           IN:                                      IN:
           ---                                      ---
             STORAGE =           0.0000               STORAGE =           0.0000
       CONSTANT HEAD =           0.0000         CONSTANT HEAD =           0.0000
               WELLS =           0.0000                 WELLS =           0.0000
       RIVER LEAKAGE =     1361876.3750         RIVER LEAKAGE =        5616.5293
            RECHARGE =       46690.0430              RECHARGE =         564.4509

            TOTAL IN =     1408566.3750              TOTAL IN =        6180.9800

          OUT:                                     OUT:
          ----                                     ----
             STORAGE =     1392028.6250               STORAGE =        5984.0112
       CONSTANT HEAD =           0.0000         CONSTANT HEAD =           0.0000
               WELLS =       16475.6465                 WELLS =         198.4721
       RIVER LEAKAGE =         204.2491         RIVER LEAKAGE =           0.0000
            RECHARGE =           0.0000              RECHARGE =           0.0000

           TOTAL OUT =     1408708.5000             TOTAL OUT =        6182.4834

            IN - OUT =        -142.1250              IN - OUT =          -1.5034

 PERCENT DISCREPANCY =          -0.01     PERCENT DISCREPANCY =          -0.02






         TIME SUMMARY AT END OF TIME STEP   82 IN STRESS PERIOD    2
                    SECONDS     MINUTES      HOURS       DAYS        YEARS
                    -----------------------------------------------------------
   TIME STEP LENGTH  86400.      1440.0      24.000      1.0000     2.73785E-03
 STRESS PERIOD TIME 7.08480E+06 1.18080E+05  1968.0      82.000     0.22450    
         TOTAL TIME 7.17120E+06 1.19520E+05  1992.0      83.000     0.22724    
1

 SOLVING FOR HEAD 

    ------------------------------------------------
       NWT REQUIRED            3 OUTER ITERATIONS 
       AND A TOTAL OF          3 INNER ITERATIONS.
    ------------------------------------------------

 OUTPUT CONTROL FOR STRESS PERIOD    2   TIME STEP   83
    SAVE HEAD FOR ALL LAYERS
    SAVE DRAWDOWN FOR ALL LAYERS
    SAVE BUDGET
    PRINT HEAD FOR ALL LAYERS
    PRINT BUDGET
1
              HEAD IN LAYER   1 AT END OF TIME STEP  83 IN STRESS PERIOD    2
  ---------------------------------------------------------------------------

            1           2           3           4           5           6           7           8           9          10
           11          12          13          14          15          16          17          18          19          20
 ........................................................................................................................
   1    0.000       0.000       0.000       0.000       0.000       7.308       7.300       7.325       7.343       7.356    
        7.368       7.432       7.783       8.357       7.774       7.416       7.365       7.369       0.000       0.000    
   2    0.000       0.000       0.000       0.000       7.348       7.371       7.346       7.396       7.398       7.406    
        7.414       7.460       7.737       8.361       7.709       7.388       7.357       7.367       0.000       0.000    
   3    0.000       0.000       0.000       7.407       7.467       7.665       7.739       7.715       7.663       7.657    
        7.656       7.661       7.738       8.365       7.619       7.321       7.348       7.369       0.000       0.000    
   4    0.000       0.000       7.580       7.635       7.826       8.358       8.352       8.356       8.363       8.361    
        8.360       8.345       7.999       8.372       7.616       7.380       7.367       7.382       0.000       0.000    
   5    0.000       0.000       8.164       8.303       8.373       8.350       7.886       7.736       7.683       7.692    
        7.818       8.356       8.372       8.333       7.591       7.401       7.386       7.400       7.417       0.000    
   6    0.000       8.374       8.375       8.367       8.229       7.753       7.519       7.455       7.437       7.437    
        7.480       7.637       7.665       7.630       7.444       7.392       7.393       7.405       7.419       0.000    
   7    0.000       7.686       7.689       7.676       7.604       7.477       7.419       7.402       7.393       7.384    
        7.383       7.416       7.428       7.424       7.394       7.386       7.389       7.396       0.000       0.000    
   8    0.000       7.451       7.456       7.456       7.442       7.422       7.411       7.404       7.391       7.371    
        7.350       7.368       7.382       7.387       7.383       7.377       7.373       7.380       0.000       0.000    
   9    0.000       0.000       7.425       7.427       7.426       7.424       7.420       7.411       7.393       7.360    
        7.290       7.350       7.374       7.380       7.375       7.358       7.337       7.360       7.378       7.390    
  10    0.000       0.000       7.429       7.430       7.431       7.430       7.426       7.415       7.397       7.369    
        7.340       7.359       7.374       7.378       7.367       7.332       7.254       7.334       7.371       7.387    

 HEAD WILL BE SAVED ON UNIT   51 AT END OF TIME STEP   83, STRESS PERIOD    2

 DRAWDOWN WILL BE SAVED ON UNIT   52 AT END OF TIME STEP   83, STRESS PERIOD    2
1
  VOLUMETRIC BUDGET FOR ENTIRE MODEL AT END OF TIME STEP   83, STRESS PERIOD   2
  ------------------------------------------------------------------------------

     CUMULATIVE VOLUMES      L**3       RATES FOR THIS TIME STEP      L**3/T
     ------------------                 ------------------------

           IN:                                      IN:
           ---                                      ---
             STORAGE =           0.0000               STORAGE =           0.0000
       CONSTANT HEAD =           0.0000         CONSTANT HEAD =           0.0000
               WELLS =           0.0000                 WELLS =           0.0000
       RIVER LEAKAGE =     1367462.1250         RIVER LEAKAGE =        5585.7725
            RECHARGE =       47254.4922              RECHARGE =         564.4509

            TOTAL IN =     1414716.6250              TOTAL IN =        6150.2231

          OUT:                                     OUT:
          ----                                     ----
             STORAGE =     1397981.8750               STORAGE =        5953.2461
       CONSTANT HEAD =           0.0000         CONSTANT HEAD =           0.0000
               WELLS =       16674.1191                 WELLS =         198.4721
       RIVER LEAKAGE =         204.2491         RIVER LEAKAGE =           0.0000
            RECHARGE =           0.0000              RECHARGE =           0.0000

           TOTAL OUT =     1414860.2500             TOTAL OUT =        6151.7183

            IN - OUT =        -143.6250              IN - OUT =          -1.4951

 PERCENT DISCREPANCY =          -0.01     PERCENT DISCREPANCY =          -0.02






         TIME SUMMARY AT END OF TIME STEP   83 IN STRESS PERIOD    2
                    SECONDS     MINUTES      HOURS       DAYS        YEARS
                    -----------------------------------------------------------
   TIME STEP LENGTH  86400.      1440.0      24.000      1.0000     2.73785E-03
 STRESS PERIOD TIME 7.17120E+06 1.19520E+05  1992.0      83.000     0.22724    
         TOTAL TIME 7.25760E+06 1.20960E+05  2016.0      84.000     0.22998    
1

 SOLVING FOR HEAD 

    ------------------------------------------------
       NWT REQUIRED            3 OUTER ITERATIONS 
       AND A TOTAL OF          3 INNER ITERATIONS.
    ------------------------------------------------

 OUTPUT CONTROL FOR STRESS PERIOD    2   TIME STEP   84
    SAVE HEAD FOR ALL LAYERS
    SAVE DRAWDOWN FOR ALL LAYERS
    SAVE BUDGET
    PRINT HEAD FOR ALL LAYERS
    PRINT BUDGET
1
              HEAD IN LAYER   1 AT END OF TIME STEP  84 IN STRESS PERIOD    2
  ---------------------------------------------------------------------------

            1           2           3           4           5           6           7           8           9          10
           11          12          13          14          15          16          17          18          19          20
 ........................................................................................................................
   1    0.000       0.000       0.000       0.000       0.000       7.309       7.301       7.325       7.343       7.356    
        7.369       7.433       7.786       8.357       7.778       7.418       7.366       7.369       0.000       0.000    
   2    0.000       0.000       0.000       0.000       7.349       7.372       7.348       7.397       7.399       7.407    
        7.416       7.462       7.740       8.361       7.713       7.390       7.358       7.367       0.000       0.000    
   3    0.000       0.000       0.000       7.408       7.469       7.667       7.742       7.718       7.666       7.660    
        7.659       7.664       7.742       8.365       7.622       7.322       7.348       7.369       0.000       0.000    
   4    0.000       0.000       7.584       7.639       7.829       8.358       8.352       8.356       8.363       8.361    
        8.361       8.345       8.003       8.372       7.618       7.381       7.368       7.382       0.000       0.000    
   5    0.000       0.000       8.167       8.304       8.373       8.350       7.890       7.739       7.686       7.695    
        7.821       8.356       8.372       8.333       7.593       7.402       7.386       7.400       7.417       0.000    
   6    0.000       8.374       8.375       8.367       8.230       7.756       7.522       7.457       7.439       7.439    
        7.482       7.640       7.667       7.632       7.445       7.392       7.394       7.405       7.419       0.000    
   7    0.000       7.689       7.692       7.678       7.607       7.479       7.420       7.403       7.393       7.384    
        7.384       7.417       7.429       7.425       7.395       7.387       7.389       7.396       0.000       0.000    
   8    0.000       7.453       7.458       7.458       7.443       7.422       7.412       7.404       7.391       7.372    
        7.350       7.368       7.382       7.387       7.383       7.377       7.373       7.380       0.000       0.000    
   9    0.000       0.000       7.425       7.427       7.426       7.424       7.420       7.411       7.393       7.360    
        7.290       7.351       7.374       7.380       7.375       7.358       7.337       7.360       7.378       7.390    
  10    0.000       0.000       7.429       7.430       7.431       7.430       7.426       7.415       7.397       7.369    
        7.340       7.359       7.374       7.378       7.367       7.332       7.254       7.334       7.371       7.388    

 HEAD WILL BE SAVED ON UNIT   51 AT END OF TIME STEP   84, STRESS PERIOD    2

 DRAWDOWN WILL BE SAVED ON UNIT   52 AT END OF TIME STEP   84, STRESS PERIOD    2
1
  VOLUMETRIC BUDGET FOR ENTIRE MODEL AT END OF TIME STEP   84, STRESS PERIOD   2
  ------------------------------------------------------------------------------

     CUMULATIVE VOLUMES      L**3       RATES FOR THIS TIME STEP      L**3/T
     ------------------                 ------------------------

           IN:                                      IN:
           ---                                      ---
             STORAGE =           0.0000               STORAGE =           0.0000
       CONSTANT HEAD =           0.0000         CONSTANT HEAD =           0.0000
               WELLS =           0.0000                 WELLS =           0.0000
       RIVER LEAKAGE =     1373017.6250         RIVER LEAKAGE =        5555.4487
            RECHARGE =       47818.9414              RECHARGE =         564.4509

            TOTAL IN =     1420836.6250              TOTAL IN =        6119.8994

          OUT:                                     OUT:
          ----                                     ----
             STORAGE =     1403904.7500               STORAGE =        5922.9150
       CONSTANT HEAD =           0.0000         CONSTANT HEAD =           0.0000
               WELLS =       16872.5918                 WELLS =         198.4721
       RIVER LEAKAGE =         204.2491         RIVER LEAKAGE =           0.0000
            RECHARGE =           0.0000              RECHARGE =           0.0000

           TOTAL OUT =     1420981.6250             TOTAL OUT =        6121.3872

            IN - OUT =        -145.0000              IN - OUT =          -1.4878

 PERCENT DISCREPANCY =          -0.01     PERCENT DISCREPANCY =          -0.02






         TIME SUMMARY AT END OF TIME STEP   84 IN STRESS PERIOD    2
                    SECONDS     MINUTES      HOURS       DAYS        YEARS
                    -----------------------------------------------------------
   TIME STEP LENGTH  86400.      1440.0      24.000      1.0000     2.73785E-03
 STRESS PERIOD TIME 7.25760E+06 1.20960E+05  2016.0      84.000     0.22998    
         TOTAL TIME 7.34400E+06 1.22400E+05  2040.0      85.000     0.23272    
1

 SOLVING FOR HEAD 

    ------------------------------------------------
       NWT REQUIRED            3 OUTER ITERATIONS 
       AND A TOTAL OF          3 INNER ITERATIONS.
    ------------------------------------------------

 OUTPUT CONTROL FOR STRESS PERIOD    2   TIME STEP   85
    SAVE HEAD FOR ALL LAYERS
    SAVE DRAWDOWN FOR ALL LAYERS
    SAVE BUDGET
    PRINT HEAD FOR ALL LAYERS
    PRINT BUDGET
1
              HEAD IN LAYER   1 AT END OF TIME STEP  85 IN STRESS PERIOD    2
  ---------------------------------------------------------------------------

            1           2           3           4           5           6           7           8           9          10
           11          12          13          14          15          16          17          18          19          20
 ........................................................................................................................
   1    0.000       0.000       0.000       0.000       0.000       7.309       7.301       7.326       7.344       7.356    
        7.369       7.435       7.789       8.357       7.781       7.419       7.366       7.369       0.000       0.000    
   2    0.000       0.000       0.000       0.000       7.350       7.373       7.349       7.399       7.401       7.408    
        7.417       7.465       7.744       8.361       7.716       7.391       7.358       7.367       0.000       0.000    
   3    0.000       0.000       0.000       7.410       7.471       7.670       7.744       7.721       7.669       7.662    
        7.662       7.667       7.746       8.366       7.624       7.324       7.348       7.369       0.000       0.000    
   4    0.000       0.000       7.588       7.642       7.832       8.358       8.352       8.356       8.363       8.361    
        8.361       8.346       8.007       8.372       7.621       7.382       7.368       7.382       0.000       0.000    
   5    0.000       0.000       8.170       8.304       8.374       8.350       7.893       7.743       7.689       7.698    
        7.824       8.356       8.372       8.333       7.595       7.402       7.386       7.400       7.417       0.000    
   6    0.000       8.374       8.375       8.368       8.231       7.760       7.524       7.458       7.440       7.440    
        7.484       7.642       7.670       7.634       7.447       7.393       7.394       7.405       7.419       0.000    
   7    0.000       7.692       7.694       7.681       7.609       7.480       7.421       7.403       7.394       7.384    
        7.385       7.418       7.431       7.426       7.395       7.387       7.389       7.396       0.000       0.000    
   8    0.000       7.455       7.459       7.459       7.444       7.423       7.412       7.404       7.391       7.372    
        7.350       7.369       7.382       7.387       7.383       7.377       7.373       7.380       0.000       0.000    
   9    0.000       0.000       7.426       7.427       7.427       7.424       7.420       7.411       7.393       7.360    
        7.290       7.351       7.374       7.380       7.375       7.358       7.337       7.360       7.378       7.390    
  10    0.000       0.000       7.429       7.430       7.431       7.430       7.426       7.415       7.397       7.370    
        7.340       7.359       7.374       7.378       7.367       7.332       7.254       7.334       7.371       7.388    

 HEAD WILL BE SAVED ON UNIT   51 AT END OF TIME STEP   85, STRESS PERIOD    2

 DRAWDOWN WILL BE SAVED ON UNIT   52 AT END OF TIME STEP   85, STRESS PERIOD    2
1
  VOLUMETRIC BUDGET FOR ENTIRE MODEL AT END OF TIME STEP   85, STRESS PERIOD   2
  ------------------------------------------------------------------------------

     CUMULATIVE VOLUMES      L**3       RATES FOR THIS TIME STEP      L**3/T
     ------------------                 ------------------------

           IN:                                      IN:
           ---                                      ---
             STORAGE =           0.0000               STORAGE =           0.0000
       CONSTANT HEAD =           0.0000         CONSTANT HEAD =           0.0000
               WELLS =           0.0000                 WELLS =           0.0000
       RIVER LEAKAGE =     1378543.1250         RIVER LEAKAGE =        5525.5483
            RECHARGE =       48383.3906              RECHARGE =         564.4509

            TOTAL IN =     1426926.5000              TOTAL IN =        6089.9990

          OUT:                                     OUT:
          ----                                     ----
             STORAGE =     1409797.7500               STORAGE =        5893.0073
       CONSTANT HEAD =           0.0000         CONSTANT HEAD =           0.0000
               WELLS =       17071.0645                 WELLS =         198.4721
       RIVER LEAKAGE =         204.2491         RIVER LEAKAGE =           0.0000
            RECHARGE =           0.0000              RECHARGE =           0.0000

           TOTAL OUT =     1427073.1250             TOTAL OUT =        6091.4795

            IN - OUT =        -146.6250              IN - OUT =          -1.4805

 PERCENT DISCREPANCY =          -0.01     PERCENT DISCREPANCY =          -0.02






         TIME SUMMARY AT END OF TIME STEP   85 IN STRESS PERIOD    2
                    SECONDS     MINUTES      HOURS       DAYS        YEARS
                    -----------------------------------------------------------
   TIME STEP LENGTH  86400.      1440.0      24.000      1.0000     2.73785E-03
 STRESS PERIOD TIME 7.34400E+06 1.22400E+05  2040.0      85.000     0.23272    
         TOTAL TIME 7.43040E+06 1.23840E+05  2064.0      86.000     0.23546    
1

 SOLVING FOR HEAD 

    ------------------------------------------------
       NWT REQUIRED            3 OUTER ITERATIONS 
       AND A TOTAL OF          3 INNER ITERATIONS.
    ------------------------------------------------

 OUTPUT CONTROL FOR STRESS PERIOD    2   TIME STEP   86
    SAVE HEAD FOR ALL LAYERS
    SAVE DRAWDOWN FOR ALL LAYERS
    SAVE BUDGET
    PRINT HEAD FOR ALL LAYERS
    PRINT BUDGET
1
              HEAD IN LAYER   1 AT END OF TIME STEP  86 IN STRESS PERIOD    2
  ---------------------------------------------------------------------------

            1           2           3           4           5           6           7           8           9          10
           11          12          13          14          15          16          17          18          19          20
 ........................................................................................................................
   1    0.000       0.000       0.000       0.000       0.000       7.310       7.302       7.326       7.344       7.357    
        7.370       7.437       7.792       8.358       7.784       7.421       7.366       7.369       0.000       0.000    
   2    0.000       0.000       0.000       0.000       7.351       7.375       7.351       7.400       7.402       7.410    
        7.419       7.467       7.747       8.361       7.719       7.392       7.358       7.367       0.000       0.000    
   3    0.000       0.000       0.000       7.412       7.473       7.673       7.747       7.724       7.672       7.665    
        7.664       7.671       7.751       8.366       7.627       7.325       7.348       7.369       0.000       0.000    
   4    0.000       0.000       7.592       7.645       7.835       8.358       8.353       8.356       8.363       8.361    
        8.361       8.346       8.011       8.372       7.623       7.383       7.368       7.382       0.000       0.000    
   5    0.000       0.000       8.172       8.305       8.374       8.350       7.896       7.746       7.691       7.701    
        7.827       8.356       8.372       8.334       7.597       7.403       7.386       7.400       7.417       0.000    
   6    0.000       8.374       8.375       8.368       8.232       7.763       7.527       7.460       7.441       7.442    
        7.486       7.644       7.672       7.637       7.448       7.393       7.394       7.405       7.419       0.000    
   7    0.000       7.694       7.697       7.683       7.612       7.482       7.422       7.404       7.394       7.385    
        7.385       7.419       7.432       7.427       7.395       7.387       7.389       7.397       0.000       0.000    
   8    0.000       7.456       7.460       7.460       7.445       7.423       7.412       7.404       7.392       7.372    
        7.350       7.369       7.383       7.387       7.383       7.377       7.373       7.380       0.000       0.000    
   9    0.000       0.000       7.426       7.427       7.427       7.424       7.420       7.411       7.393       7.360    
        7.290       7.351       7.374       7.380       7.375       7.358       7.337       7.360       7.378       7.390    
  10    0.000       0.000       7.429       7.430       7.431       7.430       7.426       7.415       7.397       7.370    
        7.340       7.359       7.374       7.378       7.367       7.332       7.254       7.334       7.371       7.388    

 HEAD WILL BE SAVED ON UNIT   51 AT END OF TIME STEP   86, STRESS PERIOD    2

 DRAWDOWN WILL BE SAVED ON UNIT   52 AT END OF TIME STEP   86, STRESS PERIOD    2
1
  VOLUMETRIC BUDGET FOR ENTIRE MODEL AT END OF TIME STEP   86, STRESS PERIOD   2
  ------------------------------------------------------------------------------

     CUMULATIVE VOLUMES      L**3       RATES FOR THIS TIME STEP      L**3/T
     ------------------                 ------------------------

           IN:                                      IN:
           ---                                      ---
             STORAGE =           0.0000               STORAGE =           0.0000
       CONSTANT HEAD =           0.0000         CONSTANT HEAD =           0.0000
               WELLS =           0.0000                 WELLS =           0.0000
       RIVER LEAKAGE =     1384039.1250         RIVER LEAKAGE =        5496.0386
            RECHARGE =       48947.8398              RECHARGE =         564.4509

            TOTAL IN =     1432987.0000              TOTAL IN =        6060.4893

          OUT:                                     OUT:
          ----                                     ----
             STORAGE =     1415661.2500               STORAGE =        5863.4897
       CONSTANT HEAD =           0.0000         CONSTANT HEAD =           0.0000
               WELLS =       17269.5371                 WELLS =         198.4721
       RIVER LEAKAGE =         204.2491         RIVER LEAKAGE =           0.0000
            RECHARGE =           0.0000              RECHARGE =           0.0000

           TOTAL OUT =     1433135.0000             TOTAL OUT =        6061.9619

            IN - OUT =        -148.0000              IN - OUT =          -1.4727

 PERCENT DISCREPANCY =          -0.01     PERCENT DISCREPANCY =          -0.02






         TIME SUMMARY AT END OF TIME STEP   86 IN STRESS PERIOD    2
                    SECONDS     MINUTES      HOURS       DAYS        YEARS
                    -----------------------------------------------------------
   TIME STEP LENGTH  86400.      1440.0      24.000      1.0000     2.73785E-03
 STRESS PERIOD TIME 7.43040E+06 1.23840E+05  2064.0      86.000     0.23546    
         TOTAL TIME 7.51680E+06 1.25280E+05  2088.0      87.000     0.23819    
1

 SOLVING FOR HEAD 

    ------------------------------------------------
       NWT REQUIRED            3 OUTER ITERATIONS 
       AND A TOTAL OF          3 INNER ITERATIONS.
    ------------------------------------------------

 OUTPUT CONTROL FOR STRESS PERIOD    2   TIME STEP   87
    SAVE HEAD FOR ALL LAYERS
    SAVE DRAWDOWN FOR ALL LAYERS
    SAVE BUDGET
    PRINT HEAD FOR ALL LAYERS
    PRINT BUDGET
1
              HEAD IN LAYER   1 AT END OF TIME STEP  87 IN STRESS PERIOD    2
  ---------------------------------------------------------------------------

            1           2           3           4           5           6           7           8           9          10
           11          12          13          14          15          16          17          18          19          20
 ........................................................................................................................
   1    0.000       0.000       0.000       0.000       0.000       7.310       7.302       7.327       7.344       7.357    
        7.371       7.439       7.796       8.358       7.787       7.422       7.367       7.369       0.000       0.000    
   2    0.000       0.000       0.000       0.000       7.352       7.376       7.353       7.402       7.403       7.411    
        7.420       7.469       7.751       8.361       7.721       7.394       7.359       7.367       0.000       0.000    
   3    0.000       0.000       0.000       7.414       7.476       7.675       7.750       7.727       7.675       7.668    
        7.667       7.674       7.755       8.366       7.630       7.326       7.349       7.369       0.000       0.000    
   4    0.000       0.000       7.596       7.649       7.838       8.359       8.353       8.356       8.363       8.362    
        8.361       8.346       8.015       8.372       7.626       7.384       7.368       7.382       0.000       0.000    
   5    0.000       0.000       8.174       8.306       8.374       8.351       7.900       7.749       7.694       7.704    
        7.831       8.356       8.372       8.334       7.599       7.404       7.387       7.400       7.417       0.000    
   6    0.000       8.374       8.375       8.368       8.233       7.766       7.529       7.462       7.443       7.443    
        7.488       7.646       7.674       7.639       7.449       7.393       7.394       7.405       7.419       0.000    
   7    0.000       7.697       7.699       7.686       7.614       7.484       7.422       7.404       7.394       7.385    
        7.386       7.420       7.433       7.428       7.396       7.387       7.389       7.397       0.000       0.000    
   8    0.000       7.458       7.462       7.461       7.446       7.424       7.412       7.404       7.392       7.372    
        7.350       7.369       7.383       7.388       7.383       7.377       7.373       7.380       0.000       0.000    
   9    0.000       0.000       7.426       7.428       7.427       7.424       7.420       7.411       7.393       7.360    
        7.290       7.351       7.374       7.381       7.375       7.358       7.337       7.360       7.378       7.390    
  10    0.000       0.000       7.429       7.430       7.431       7.430       7.426       7.415       7.397       7.370    
        7.340       7.359       7.374       7.378       7.367       7.332       7.254       7.334       7.371       7.388    

 HEAD WILL BE SAVED ON UNIT   51 AT END OF TIME STEP   87, STRESS PERIOD    2

 DRAWDOWN WILL BE SAVED ON UNIT   52 AT END OF TIME STEP   87, STRESS PERIOD    2
1
  VOLUMETRIC BUDGET FOR ENTIRE MODEL AT END OF TIME STEP   87, STRESS PERIOD   2
  ------------------------------------------------------------------------------

     CUMULATIVE VOLUMES      L**3       RATES FOR THIS TIME STEP      L**3/T
     ------------------                 ------------------------

           IN:                                      IN:
           ---                                      ---
             STORAGE =           0.0000               STORAGE =           0.0000
       CONSTANT HEAD =           0.0000         CONSTANT HEAD =           0.0000
               WELLS =           0.0000                 WELLS =           0.0000
       RIVER LEAKAGE =     1389506.1250         RIVER LEAKAGE =        5466.9473
            RECHARGE =       49512.2891              RECHARGE =         564.4509

            TOTAL IN =     1439018.3750              TOTAL IN =        6031.3979

          OUT:                                     OUT:
          ----                                     ----
             STORAGE =     1421495.6250               STORAGE =        5834.3916
       CONSTANT HEAD =           0.0000         CONSTANT HEAD =           0.0000
               WELLS =       17468.0098                 WELLS =         198.4721
       RIVER LEAKAGE =         204.2491         RIVER LEAKAGE =           0.0000
            RECHARGE =           0.0000              RECHARGE =           0.0000

           TOTAL OUT =     1439167.8750             TOTAL OUT =        6032.8638

            IN - OUT =        -149.5000              IN - OUT =          -1.4658

 PERCENT DISCREPANCY =          -0.01     PERCENT DISCREPANCY =          -0.02






         TIME SUMMARY AT END OF TIME STEP   87 IN STRESS PERIOD    2
                    SECONDS     MINUTES      HOURS       DAYS        YEARS
                    -----------------------------------------------------------
   TIME STEP LENGTH  86400.      1440.0      24.000      1.0000     2.73785E-03
 STRESS PERIOD TIME 7.51680E+06 1.25280E+05  2088.0      87.000     0.23819    
         TOTAL TIME 7.60320E+06 1.26720E+05  2112.0      88.000     0.24093    
1

 SOLVING FOR HEAD 

    ------------------------------------------------
       NWT REQUIRED            3 OUTER ITERATIONS 
       AND A TOTAL OF          3 INNER ITERATIONS.
    ------------------------------------------------

 OUTPUT CONTROL FOR STRESS PERIOD    2   TIME STEP   88
    SAVE HEAD FOR ALL LAYERS
    SAVE DRAWDOWN FOR ALL LAYERS
    SAVE BUDGET
    PRINT HEAD FOR ALL LAYERS
    PRINT BUDGET
1
              HEAD IN LAYER   1 AT END OF TIME STEP  88 IN STRESS PERIOD    2
  ---------------------------------------------------------------------------

            1           2           3           4           5           6           7           8           9          10
           11          12          13          14          15          16          17          18          19          20
 ........................................................................................................................
   1    0.000       0.000       0.000       0.000       0.000       7.311       7.303       7.327       7.345       7.358    
        7.371       7.440       7.799       8.358       7.790       7.424       7.367       7.369       0.000       0.000    
   2    0.000       0.000       0.000       0.000       7.353       7.378       7.355       7.404       7.405       7.412    
        7.421       7.471       7.754       8.361       7.724       7.395       7.359       7.368       0.000       0.000    
   3    0.000       0.000       0.000       7.416       7.478       7.678       7.753       7.730       7.678       7.670    
        7.670       7.677       7.759       8.366       7.632       7.327       7.349       7.369       0.000       0.000    
   4    0.000       0.000       7.599       7.652       7.841       8.359       8.353       8.356       8.363       8.362    
        8.361       8.346       8.019       8.372       7.628       7.385       7.368       7.382       0.000       0.000    
   5    0.000       0.000       8.177       8.306       8.374       8.351       7.903       7.752       7.697       7.707    
        7.834       8.356       8.372       8.334       7.601       7.405       7.387       7.400       7.417       0.000    
   6    0.000       8.374       8.375       8.368       8.234       7.769       7.532       7.464       7.444       7.445    
        7.490       7.649       7.677       7.641       7.451       7.394       7.394       7.405       7.419       0.000    
   7    0.000       7.700       7.702       7.688       7.617       7.486       7.423       7.405       7.395       7.385    
        7.387       7.421       7.434       7.429       7.396       7.387       7.389       7.397       0.000       0.000    
   8    0.000       7.459       7.463       7.462       7.447       7.424       7.413       7.404       7.392       7.372    
        7.350       7.370       7.383       7.388       7.383       7.377       7.373       7.380       0.000       0.000    
   9    0.000       0.000       7.427       7.428       7.427       7.424       7.420       7.411       7.393       7.360    
        7.290       7.351       7.374       7.381       7.375       7.358       7.337       7.360       7.378       7.390    
  10    0.000       0.000       7.429       7.430       7.431       7.430       7.426       7.415       7.397       7.370    
        7.341       7.359       7.374       7.378       7.367       7.332       7.254       7.334       7.371       7.388    

 HEAD WILL BE SAVED ON UNIT   51 AT END OF TIME STEP   88, STRESS PERIOD    2

 DRAWDOWN WILL BE SAVED ON UNIT   52 AT END OF TIME STEP   88, STRESS PERIOD    2
1
  VOLUMETRIC BUDGET FOR ENTIRE MODEL AT END OF TIME STEP   88, STRESS PERIOD   2
  ------------------------------------------------------------------------------

     CUMULATIVE VOLUMES      L**3       RATES FOR THIS TIME STEP      L**3/T
     ------------------                 ------------------------

           IN:                                      IN:
           ---                                      ---
             STORAGE =           0.0000               STORAGE =           0.0000
       CONSTANT HEAD =           0.0000         CONSTANT HEAD =           0.0000
               WELLS =           0.0000                 WELLS =           0.0000
       RIVER LEAKAGE =     1394944.3750         RIVER LEAKAGE =        5438.2534
            RECHARGE =       50076.7383              RECHARGE =         564.4509

            TOTAL IN =     1445021.1250              TOTAL IN =        6002.7041

          OUT:                                     OUT:
          ----                                     ----
             STORAGE =     1427301.3750               STORAGE =        5805.6899
       CONSTANT HEAD =           0.0000         CONSTANT HEAD =           0.0000
               WELLS =       17666.4824                 WELLS =         198.4721
       RIVER LEAKAGE =         204.2491         RIVER LEAKAGE =           0.0000
            RECHARGE =           0.0000              RECHARGE =           0.0000

           TOTAL OUT =     1445172.1250             TOTAL OUT =        6004.1621

            IN - OUT =        -151.0000              IN - OUT =          -1.4580

 PERCENT DISCREPANCY =          -0.01     PERCENT DISCREPANCY =          -0.02






         TIME SUMMARY AT END OF TIME STEP   88 IN STRESS PERIOD    2
                    SECONDS     MINUTES      HOURS       DAYS        YEARS
                    -----------------------------------------------------------
   TIME STEP LENGTH  86400.      1440.0      24.000      1.0000     2.73785E-03
 STRESS PERIOD TIME 7.60320E+06 1.26720E+05  2112.0      88.000     0.24093    
         TOTAL TIME 7.68960E+06 1.28160E+05  2136.0      89.000     0.24367    
1

 SOLVING FOR HEAD 

    ------------------------------------------------
       NWT REQUIRED            3 OUTER ITERATIONS 
       AND A TOTAL OF          3 INNER ITERATIONS.
    ------------------------------------------------

 OUTPUT CONTROL FOR STRESS PERIOD    2   TIME STEP   89
    SAVE HEAD FOR ALL LAYERS
    SAVE DRAWDOWN FOR ALL LAYERS
    SAVE BUDGET
    PRINT HEAD FOR ALL LAYERS
    PRINT BUDGET
1
              HEAD IN LAYER   1 AT END OF TIME STEP  89 IN STRESS PERIOD    2
  ---------------------------------------------------------------------------

            1           2           3           4           5           6           7           8           9          10
           11          12          13          14          15          16          17          18          19          20
 ........................................................................................................................
   1    0.000       0.000       0.000       0.000       0.000       7.311       7.303       7.328       7.345       7.358    
        7.372       7.442       7.802       8.358       7.793       7.425       7.367       7.369       0.000       0.000    
   2    0.000       0.000       0.000       0.000       7.354       7.379       7.356       7.405       7.406       7.413    
        7.423       7.474       7.757       8.361       7.727       7.396       7.359       7.368       0.000       0.000    
   3    0.000       0.000       0.000       7.417       7.480       7.680       7.755       7.732       7.680       7.673    
        7.672       7.680       7.763       8.366       7.635       7.328       7.349       7.369       0.000       0.000    
   4    0.000       0.000       7.603       7.655       7.844       8.359       8.353       8.357       8.363       8.362    
        8.361       8.347       8.023       8.372       7.630       7.386       7.369       7.382       0.000       0.000    
   5    0.000       0.000       8.179       8.307       8.374       8.351       7.906       7.755       7.700       7.710    
        7.837       8.356       8.372       8.334       7.603       7.405       7.387       7.400       7.417       0.000    
   6    0.000       8.374       8.375       8.368       8.235       7.772       7.534       7.465       7.445       7.446    
        7.492       7.651       7.679       7.643       7.452       7.394       7.394       7.405       7.419       0.000    
   7    0.000       7.702       7.705       7.691       7.619       7.487       7.424       7.405       7.395       7.386    
        7.387       7.422       7.435       7.430       7.397       7.387       7.389       7.397       0.000       0.000    
   8    0.000       7.461       7.464       7.463       7.448       7.425       7.413       7.405       7.392       7.372    
        7.350       7.370       7.384       7.388       7.383       7.377       7.373       7.380       0.000       0.000    
   9    0.000       0.000       7.427       7.428       7.427       7.425       7.420       7.411       7.393       7.360    
        7.290       7.351       7.374       7.381       7.375       7.358       7.337       7.360       7.378       7.390    
  10    0.000       0.000       7.429       7.431       7.431       7.430       7.426       7.415       7.397       7.370    
        7.341       7.359       7.374       7.378       7.367       7.332       7.254       7.334       7.371       7.388    

 HEAD WILL BE SAVED ON UNIT   51 AT END OF TIME STEP   89, STRESS PERIOD    2

 DRAWDOWN WILL BE SAVED ON UNIT   52 AT END OF TIME STEP   89, STRESS PERIOD    2
1
  VOLUMETRIC BUDGET FOR ENTIRE MODEL AT END OF TIME STEP   89, STRESS PERIOD   2
  ------------------------------------------------------------------------------

     CUMULATIVE VOLUMES      L**3       RATES FOR THIS TIME STEP      L**3/T
     ------------------                 ------------------------

           IN:                                      IN:
           ---                                      ---
             STORAGE =           0.0000               STORAGE =           0.0000
       CONSTANT HEAD =           0.0000         CONSTANT HEAD =           0.0000
               WELLS =           0.0000                 WELLS =           0.0000
       RIVER LEAKAGE =     1400354.2500         RIVER LEAKAGE =        5409.9238
            RECHARGE =       50641.1875              RECHARGE =         564.4509

            TOTAL IN =     1450995.5000              TOTAL IN =        5974.3745

          OUT:                                     OUT:
          ----                                     ----
             STORAGE =     1433078.7500               STORAGE =        5777.3530
       CONSTANT HEAD =           0.0000         CONSTANT HEAD =           0.0000
               WELLS =       17864.9551                 WELLS =         198.4721
       RIVER LEAKAGE =         204.2491         RIVER LEAKAGE =           0.0000
            RECHARGE =           0.0000              RECHARGE =           0.0000

           TOTAL OUT =     1451148.0000             TOTAL OUT =        5975.8252

            IN - OUT =        -152.5000              IN - OUT =          -1.4507

 PERCENT DISCREPANCY =          -0.01     PERCENT DISCREPANCY =          -0.02






         TIME SUMMARY AT END OF TIME STEP   89 IN STRESS PERIOD    2
                    SECONDS     MINUTES      HOURS       DAYS        YEARS
                    -----------------------------------------------------------
   TIME STEP LENGTH  86400.      1440.0      24.000      1.0000     2.73785E-03
 STRESS PERIOD TIME 7.68960E+06 1.28160E+05  2136.0      89.000     0.24367    
         TOTAL TIME 7.77600E+06 1.29600E+05  2160.0      90.000     0.24641    
1

 SOLVING FOR HEAD 

    ------------------------------------------------
       NWT REQUIRED            3 OUTER ITERATIONS 
       AND A TOTAL OF          3 INNER ITERATIONS.
    ------------------------------------------------

 OUTPUT CONTROL FOR STRESS PERIOD    2   TIME STEP   90
    SAVE HEAD FOR ALL LAYERS
    SAVE DRAWDOWN FOR ALL LAYERS
    SAVE BUDGET
    PRINT HEAD FOR ALL LAYERS
    PRINT BUDGET
1
              HEAD IN LAYER   1 AT END OF TIME STEP  90 IN STRESS PERIOD    2
  ---------------------------------------------------------------------------

            1           2           3           4           5           6           7           8           9          10
           11          12          13          14          15          16          17          18          19          20
 ........................................................................................................................
   1    0.000       0.000       0.000       0.000       0.000       7.311       7.304       7.328       7.346       7.358    
        7.373       7.444       7.805       8.358       7.796       7.426       7.368       7.369       0.000       0.000    
   2    0.000       0.000       0.000       0.000       7.355       7.380       7.358       7.407       7.407       7.415    
        7.424       7.476       7.761       8.361       7.730       7.397       7.359       7.368       0.000       0.000    
   3    0.000       0.000       0.000       7.419       7.483       7.683       7.758       7.735       7.683       7.676    
        7.675       7.683       7.767       8.366       7.638       7.329       7.349       7.369       0.000       0.000    
   4    0.000       0.000       7.607       7.658       7.847       8.359       8.353       8.357       8.364       8.362    
        8.361       8.347       8.027       8.372       7.633       7.387       7.369       7.382       0.000       0.000    
   5    0.000       0.000       8.181       8.307       8.374       8.351       7.909       7.758       7.703       7.713    
        7.840       8.357       8.372       8.334       7.605       7.406       7.387       7.400       7.417       0.000    
   6    0.000       8.374       8.375       8.368       8.236       7.775       7.537       7.467       7.447       7.448    
        7.494       7.653       7.682       7.645       7.453       7.394       7.394       7.405       7.419       0.000    
   7    0.000       7.705       7.707       7.693       7.622       7.489       7.425       7.406       7.396       7.386    
        7.388       7.423       7.436       7.431       7.397       7.387       7.389       7.397       0.000       0.000    
   8    0.000       7.462       7.465       7.465       7.449       7.425       7.413       7.405       7.392       7.372    
        7.351       7.370       7.384       7.388       7.384       7.377       7.373       7.381       0.000       0.000    
   9    0.000       0.000       7.427       7.429       7.428       7.425       7.420       7.411       7.393       7.360    
        7.290       7.351       7.374       7.381       7.375       7.358       7.337       7.360       7.378       7.390    
  10    0.000       0.000       7.429       7.431       7.431       7.430       7.426       7.415       7.397       7.370    
        7.341       7.359       7.375       7.378       7.367       7.332       7.254       7.334       7.371       7.388    

 HEAD WILL BE SAVED ON UNIT   51 AT END OF TIME STEP   90, STRESS PERIOD    2

 DRAWDOWN WILL BE SAVED ON UNIT   52 AT END OF TIME STEP   90, STRESS PERIOD    2
1
  VOLUMETRIC BUDGET FOR ENTIRE MODEL AT END OF TIME STEP   90, STRESS PERIOD   2
  ------------------------------------------------------------------------------

     CUMULATIVE VOLUMES      L**3       RATES FOR THIS TIME STEP      L**3/T
     ------------------                 ------------------------

           IN:                                      IN:
           ---                                      ---
             STORAGE =           0.0000               STORAGE =           0.0000
       CONSTANT HEAD =           0.0000         CONSTANT HEAD =           0.0000
               WELLS =           0.0000                 WELLS =           0.0000
       RIVER LEAKAGE =     1405736.2500         RIVER LEAKAGE =        5381.9795
            RECHARGE =       51205.6367              RECHARGE =         564.4509

            TOTAL IN =     1456941.8750              TOTAL IN =        5946.4302

          OUT:                                     OUT:
          ----                                     ----
             STORAGE =     1438828.1250               STORAGE =        5749.4019
       CONSTANT HEAD =           0.0000         CONSTANT HEAD =           0.0000
               WELLS =       18063.4277                 WELLS =         198.4721
       RIVER LEAKAGE =         204.2491         RIVER LEAKAGE =           0.0000
            RECHARGE =           0.0000              RECHARGE =           0.0000

           TOTAL OUT =     1457095.7500             TOTAL OUT =        5947.8740

            IN - OUT =        -153.8750              IN - OUT =          -1.4438

 PERCENT DISCREPANCY =          -0.01     PERCENT DISCREPANCY =          -0.02






         TIME SUMMARY AT END OF TIME STEP   90 IN STRESS PERIOD    2
                    SECONDS     MINUTES      HOURS       DAYS        YEARS
                    -----------------------------------------------------------
   TIME STEP LENGTH  86400.      1440.0      24.000      1.0000     2.73785E-03
 STRESS PERIOD TIME 7.77600E+06 1.29600E+05  2160.0      90.000     0.24641    
         TOTAL TIME 7.86240E+06 1.31040E+05  2184.0      91.000     0.24914    
1

 SOLVING FOR HEAD 

    ------------------------------------------------
       NWT REQUIRED            3 OUTER ITERATIONS 
       AND A TOTAL OF          3 INNER ITERATIONS.
    ------------------------------------------------

 OUTPUT CONTROL FOR STRESS PERIOD    2   TIME STEP   91
    SAVE HEAD FOR ALL LAYERS
    SAVE DRAWDOWN FOR ALL LAYERS
    SAVE BUDGET
    PRINT HEAD FOR ALL LAYERS
    PRINT BUDGET
1
              HEAD IN LAYER   1 AT END OF TIME STEP  91 IN STRESS PERIOD    2
  ---------------------------------------------------------------------------

            1           2           3           4           5           6           7           8           9          10
           11          12          13          14          15          16          17          18          19          20
 ........................................................................................................................
   1    0.000       0.000       0.000       0.000       0.000       7.312       7.305       7.329       7.346       7.359    
        7.373       7.445       7.808       8.358       7.799       7.428       7.368       7.369       0.000       0.000    
   2    0.000       0.000       0.000       0.000       7.356       7.382       7.360       7.409       7.409       7.416    
        7.426       7.478       7.764       8.362       7.733       7.399       7.360       7.368       0.000       0.000    
   3    0.000       0.000       0.000       7.421       7.485       7.685       7.761       7.738       7.686       7.678    
        7.678       7.686       7.771       8.366       7.640       7.330       7.350       7.369       0.000       0.000    
   4    0.000       0.000       7.611       7.661       7.850       8.359       8.354       8.357       8.364       8.362    
        8.361       8.347       8.031       8.372       7.635       7.388       7.369       7.382       0.000       0.000    
   5    0.000       0.000       8.183       8.308       8.374       8.351       7.912       7.761       7.705       7.716    
        7.843       8.357       8.372       8.334       7.607       7.407       7.387       7.400       7.417       0.000    
   6    0.000       8.374       8.376       8.368       8.237       7.777       7.539       7.469       7.448       7.449    
        7.496       7.655       7.684       7.647       7.455       7.395       7.394       7.405       7.419       0.000    
   7    0.000       7.708       7.710       7.696       7.624       7.491       7.426       7.406       7.396       7.387    
        7.389       7.424       7.437       7.432       7.398       7.388       7.390       7.397       0.000       0.000    
   8    0.000       7.464       7.467       7.466       7.450       7.426       7.413       7.405       7.392       7.372    
        7.351       7.370       7.384       7.389       7.384       7.378       7.373       7.381       0.000       0.000    
   9    0.000       0.000       7.428       7.429       7.428       7.425       7.420       7.411       7.393       7.360    
        7.290       7.351       7.374       7.381       7.375       7.358       7.337       7.360       7.378       7.390    
  10    0.000       0.000       7.430       7.431       7.431       7.430       7.426       7.415       7.397       7.370    
        7.341       7.359       7.375       7.378       7.367       7.332       7.254       7.334       7.371       7.388    

 HEAD WILL BE SAVED ON UNIT   51 AT END OF TIME STEP   91, STRESS PERIOD    2

 DRAWDOWN WILL BE SAVED ON UNIT   52 AT END OF TIME STEP   91, STRESS PERIOD    2
1
  VOLUMETRIC BUDGET FOR ENTIRE MODEL AT END OF TIME STEP   91, STRESS PERIOD   2
  ------------------------------------------------------------------------------

     CUMULATIVE VOLUMES      L**3       RATES FOR THIS TIME STEP      L**3/T
     ------------------                 ------------------------

           IN:                                      IN:
           ---                                      ---
             STORAGE =           0.0000               STORAGE =           0.0000
       CONSTANT HEAD =           0.0000         CONSTANT HEAD =           0.0000
               WELLS =           0.0000                 WELLS =           0.0000
       RIVER LEAKAGE =     1411090.6250         RIVER LEAKAGE =        5354.4092
            RECHARGE =       51770.0859              RECHARGE =         564.4509

            TOTAL IN =     1462860.7500              TOTAL IN =        5918.8599

          OUT:                                     OUT:
          ----                                     ----
             STORAGE =     1444550.0000               STORAGE =        5721.8247
       CONSTANT HEAD =           0.0000         CONSTANT HEAD =           0.0000
               WELLS =       18261.9004                 WELLS =         198.4721
       RIVER LEAKAGE =         204.2491         RIVER LEAKAGE =           0.0000
            RECHARGE =           0.0000              RECHARGE =           0.0000

           TOTAL OUT =     1463016.1250             TOTAL OUT =        5920.2969

            IN - OUT =        -155.3750              IN - OUT =          -1.4370

 PERCENT DISCREPANCY =          -0.01     PERCENT DISCREPANCY =          -0.02






         TIME SUMMARY AT END OF TIME STEP   91 IN STRESS PERIOD    2
                    SECONDS     MINUTES      HOURS       DAYS        YEARS
                    -----------------------------------------------------------
   TIME STEP LENGTH  86400.      1440.0      24.000      1.0000     2.73785E-03
 STRESS PERIOD TIME 7.86240E+06 1.31040E+05  2184.0      91.000     0.24914    
         TOTAL TIME 7.94880E+06 1.32480E+05  2208.0      92.000     0.25188    
1

 SOLVING FOR HEAD 

    ------------------------------------------------
       NWT REQUIRED            3 OUTER ITERATIONS 
       AND A TOTAL OF          3 INNER ITERATIONS.
    ------------------------------------------------

 OUTPUT CONTROL FOR STRESS PERIOD    2   TIME STEP   92
    SAVE HEAD FOR ALL LAYERS
    SAVE DRAWDOWN FOR ALL LAYERS
    SAVE BUDGET
    PRINT HEAD FOR ALL LAYERS
    PRINT BUDGET
1
              HEAD IN LAYER   1 AT END OF TIME STEP  92 IN STRESS PERIOD    2
  ---------------------------------------------------------------------------

            1           2           3           4           5           6           7           8           9          10
           11          12          13          14          15          16          17          18          19          20
 ........................................................................................................................
   1    0.000       0.000       0.000       0.000       0.000       7.312       7.305       7.329       7.347       7.359    
        7.374       7.447       7.811       8.359       7.802       7.429       7.368       7.369       0.000       0.000    
   2    0.000       0.000       0.000       0.000       7.357       7.383       7.362       7.410       7.410       7.417    
        7.427       7.480       7.767       8.362       7.736       7.400       7.360       7.368       0.000       0.000    
   3    0.000       0.000       0.000       7.423       7.487       7.688       7.763       7.741       7.688       7.681    
        7.680       7.689       7.775       8.366       7.643       7.331       7.350       7.369       0.000       0.000    
   4    0.000       0.000       7.614       7.665       7.853       8.359       8.354       8.357       8.364       8.362    
        8.362       8.347       8.034       8.372       7.637       7.389       7.369       7.382       0.000       0.000    
   5    0.000       0.000       8.186       8.309       8.374       8.352       7.915       7.764       7.708       7.719    
        7.846       8.357       8.372       8.334       7.609       7.408       7.387       7.400       7.417       0.000    
   6    0.000       8.374       8.376       8.368       8.238       7.780       7.542       7.470       7.450       7.451    
        7.498       7.657       7.686       7.649       7.456       7.395       7.394       7.405       7.419       0.000    
   7    0.000       7.710       7.712       7.698       7.626       7.493       7.427       7.407       7.396       7.387    
        7.389       7.425       7.438       7.433       7.398       7.388       7.390       7.397       0.000       0.000    
   8    0.000       7.465       7.468       7.467       7.451       7.426       7.413       7.405       7.392       7.372    
        7.351       7.371       7.384       7.389       7.384       7.378       7.373       7.381       0.000       0.000    
   9    0.000       0.000       7.428       7.429       7.428       7.425       7.420       7.411       7.393       7.360    
        7.290       7.351       7.374       7.381       7.375       7.358       7.337       7.360       7.378       7.390    
  10    0.000       0.000       7.430       7.431       7.432       7.430       7.426       7.415       7.397       7.370    
        7.341       7.359       7.375       7.378       7.367       7.332       7.254       7.334       7.371       7.388    

 HEAD WILL BE SAVED ON UNIT   51 AT END OF TIME STEP   92, STRESS PERIOD    2

 DRAWDOWN WILL BE SAVED ON UNIT   52 AT END OF TIME STEP   92, STRESS PERIOD    2
1
  VOLUMETRIC BUDGET FOR ENTIRE MODEL AT END OF TIME STEP   92, STRESS PERIOD   2
  ------------------------------------------------------------------------------

     CUMULATIVE VOLUMES      L**3       RATES FOR THIS TIME STEP      L**3/T
     ------------------                 ------------------------

           IN:                                      IN:
           ---                                      ---
             STORAGE =           0.0000               STORAGE =           0.0000
       CONSTANT HEAD =           0.0000         CONSTANT HEAD =           0.0000
               WELLS =           0.0000                 WELLS =           0.0000
       RIVER LEAKAGE =     1416417.7500         RIVER LEAKAGE =        5327.1821
            RECHARGE =       52334.5352              RECHARGE =         564.4509

            TOTAL IN =     1468752.2500              TOTAL IN =        5891.6328

          OUT:                                     OUT:
          ----                                     ----
             STORAGE =     1450244.6250               STORAGE =        5694.5908
       CONSTANT HEAD =           0.0000         CONSTANT HEAD =           0.0000
               WELLS =       18460.3730                 WELLS =         198.4721
       RIVER LEAKAGE =         204.2491         RIVER LEAKAGE =           0.0000
            RECHARGE =           0.0000              RECHARGE =           0.0000

           TOTAL OUT =     1468909.2500             TOTAL OUT =        5893.0630

            IN - OUT =        -157.0000              IN - OUT =          -1.4302

 PERCENT DISCREPANCY =          -0.01     PERCENT DISCREPANCY =          -0.02






         TIME SUMMARY AT END OF TIME STEP   92 IN STRESS PERIOD    2
                    SECONDS     MINUTES      HOURS       DAYS        YEARS
                    -----------------------------------------------------------
   TIME STEP LENGTH  86400.      1440.0      24.000      1.0000     2.73785E-03
 STRESS PERIOD TIME 7.94880E+06 1.32480E+05  2208.0      92.000     0.25188    
         TOTAL TIME 8.03520E+06 1.33920E+05  2232.0      93.000     0.25462    
1

 SOLVING FOR HEAD 

    ------------------------------------------------
       NWT REQUIRED            3 OUTER ITERATIONS 
       AND A TOTAL OF          3 INNER ITERATIONS.
    ------------------------------------------------

 OUTPUT CONTROL FOR STRESS PERIOD    2   TIME STEP   93
    SAVE HEAD FOR ALL LAYERS
    SAVE DRAWDOWN FOR ALL LAYERS
    SAVE BUDGET
    PRINT HEAD FOR ALL LAYERS
    PRINT BUDGET
1
              HEAD IN LAYER   1 AT END OF TIME STEP  93 IN STRESS PERIOD    2
  ---------------------------------------------------------------------------

            1           2           3           4           5           6           7           8           9          10
           11          12          13          14          15          16          17          18          19          20
 ........................................................................................................................
   1    0.000       0.000       0.000       0.000       0.000       7.313       7.306       7.330       7.347       7.360    
        7.375       7.449       7.814       8.359       7.805       7.431       7.369       7.369       0.000       0.000    
   2    0.000       0.000       0.000       0.000       7.358       7.385       7.363       7.412       7.412       7.419    
        7.429       7.483       7.771       8.362       7.739       7.401       7.360       7.368       0.000       0.000    
   3    0.000       0.000       0.000       7.425       7.489       7.690       7.766       7.743       7.691       7.683    
        7.683       7.692       7.779       8.366       7.646       7.332       7.350       7.369       0.000       0.000    
   4    0.000       0.000       7.618       7.668       7.856       8.359       8.354       8.357       8.364       8.362    
        8.362       8.348       8.038       8.372       7.640       7.390       7.370       7.382       0.000       0.000    
   5    0.000       0.000       8.188       8.309       8.374       8.352       7.918       7.767       7.711       7.722    
        7.849       8.357       8.372       8.335       7.611       7.409       7.388       7.400       7.417       0.000    
   6    0.000       8.374       8.376       8.368       8.239       7.783       7.544       7.472       7.451       7.452    
        7.500       7.660       7.689       7.651       7.457       7.396       7.394       7.405       7.419       0.000    
   7    0.000       7.713       7.715       7.701       7.629       7.494       7.428       7.407       7.397       7.388    
        7.390       7.426       7.439       7.433       7.399       7.388       7.390       7.397       0.000       0.000    
   8    0.000       7.467       7.469       7.468       7.452       7.427       7.414       7.405       7.392       7.372    
        7.351       7.371       7.385       7.389       7.384       7.378       7.373       7.381       0.000       0.000    
   9    0.000       0.000       7.428       7.430       7.428       7.425       7.420       7.411       7.393       7.360    
        7.290       7.351       7.374       7.381       7.375       7.358       7.337       7.360       7.378       7.390    
  10    0.000       0.000       7.430       7.431       7.432       7.431       7.426       7.415       7.397       7.370    
        7.341       7.359       7.375       7.378       7.367       7.332       7.254       7.334       7.372       7.388    

 HEAD WILL BE SAVED ON UNIT   51 AT END OF TIME STEP   93, STRESS PERIOD    2

 DRAWDOWN WILL BE SAVED ON UNIT   52 AT END OF TIME STEP   93, STRESS PERIOD    2
1
  VOLUMETRIC BUDGET FOR ENTIRE MODEL AT END OF TIME STEP   93, STRESS PERIOD   2
  ------------------------------------------------------------------------------

     CUMULATIVE VOLUMES      L**3       RATES FOR THIS TIME STEP      L**3/T
     ------------------                 ------------------------

           IN:                                      IN:
           ---                                      ---
             STORAGE =           0.0000               STORAGE =           0.0000
       CONSTANT HEAD =           0.0000         CONSTANT HEAD =           0.0000
               WELLS =           0.0000                 WELLS =           0.0000
       RIVER LEAKAGE =     1421718.0000         RIVER LEAKAGE =        5300.2988
            RECHARGE =       52898.9844              RECHARGE =         564.4509

            TOTAL IN =     1474617.0000              TOTAL IN =        5864.7495

          OUT:                                     OUT:
          ----                                     ----
             STORAGE =     1455912.3750               STORAGE =        5667.7002
       CONSTANT HEAD =           0.0000         CONSTANT HEAD =           0.0000
               WELLS =       18658.8457                 WELLS =         198.4721
       RIVER LEAKAGE =         204.2491         RIVER LEAKAGE =           0.0000
            RECHARGE =           0.0000              RECHARGE =           0.0000

           TOTAL OUT =     1474775.5000             TOTAL OUT =        5866.1724

            IN - OUT =        -158.5000              IN - OUT =          -1.4229

 PERCENT DISCREPANCY =          -0.01     PERCENT DISCREPANCY =          -0.02






         TIME SUMMARY AT END OF TIME STEP   93 IN STRESS PERIOD    2
                    SECONDS     MINUTES      HOURS       DAYS        YEARS
                    -----------------------------------------------------------
   TIME STEP LENGTH  86400.      1440.0      24.000      1.0000     2.73785E-03
 STRESS PERIOD TIME 8.03520E+06 1.33920E+05  2232.0      93.000     0.25462    
         TOTAL TIME 8.12160E+06 1.35360E+05  2256.0      94.000     0.25736    
1

 SOLVING FOR HEAD 

    ------------------------------------------------
       NWT REQUIRED            3 OUTER ITERATIONS 
       AND A TOTAL OF          3 INNER ITERATIONS.
    ------------------------------------------------

 OUTPUT CONTROL FOR STRESS PERIOD    2   TIME STEP   94
    SAVE HEAD FOR ALL LAYERS
    SAVE DRAWDOWN FOR ALL LAYERS
    SAVE BUDGET
    PRINT HEAD FOR ALL LAYERS
    PRINT BUDGET
1
              HEAD IN LAYER   1 AT END OF TIME STEP  94 IN STRESS PERIOD    2
  ---------------------------------------------------------------------------

            1           2           3           4           5           6           7           8           9          10
           11          12          13          14          15          16          17          18          19          20
 ........................................................................................................................
   1    0.000       0.000       0.000       0.000       0.000       7.313       7.306       7.330       7.348       7.360    
        7.375       7.451       7.817       8.359       7.808       7.432       7.369       7.369       0.000       0.000    
   2    0.000       0.000       0.000       0.000       7.359       7.386       7.365       7.414       7.413       7.420    
        7.430       7.485       7.774       8.362       7.741       7.403       7.361       7.368       0.000       0.000    
   3    0.000       0.000       0.000       7.427       7.492       7.693       7.768       7.746       7.694       7.686    
        7.686       7.695       7.783       8.366       7.648       7.334       7.350       7.369       0.000       0.000    
   4    0.000       0.000       7.622       7.671       7.859       8.359       8.354       8.357       8.364       8.362    
        8.362       8.348       8.042       8.373       7.642       7.391       7.370       7.382       0.000       0.000    
   5    0.000       0.000       8.190       8.310       8.374       8.352       7.921       7.770       7.714       7.724    
        7.851       8.357       8.372       8.335       7.613       7.409       7.388       7.400       7.418       0.000    
   6    0.000       8.374       8.376       8.368       8.240       7.786       7.547       7.474       7.452       7.454    
        7.502       7.662       7.691       7.653       7.459       7.396       7.394       7.405       7.419       0.000    
   7    0.000       7.715       7.717       7.703       7.631       7.496       7.429       7.408       7.397       7.388    
        7.391       7.427       7.441       7.434       7.399       7.388       7.390       7.397       0.000       0.000    
   8    0.000       7.468       7.470       7.469       7.453       7.427       7.414       7.405       7.392       7.372    
        7.351       7.371       7.385       7.389       7.384       7.378       7.373       7.381       0.000       0.000    
   9    0.000       0.000       7.429       7.430       7.429       7.425       7.420       7.411       7.393       7.360    
        7.290       7.351       7.374       7.381       7.375       7.359       7.337       7.360       7.378       7.390    
  10    0.000       0.000       7.430       7.431       7.432       7.431       7.426       7.415       7.397       7.370    
        7.341       7.359       7.375       7.378       7.367       7.333       7.254       7.335       7.372       7.388    

 HEAD WILL BE SAVED ON UNIT   51 AT END OF TIME STEP   94, STRESS PERIOD    2

 DRAWDOWN WILL BE SAVED ON UNIT   52 AT END OF TIME STEP   94, STRESS PERIOD    2
1
  VOLUMETRIC BUDGET FOR ENTIRE MODEL AT END OF TIME STEP   94, STRESS PERIOD   2
  ------------------------------------------------------------------------------

     CUMULATIVE VOLUMES      L**3       RATES FOR THIS TIME STEP      L**3/T
     ------------------                 ------------------------

           IN:                                      IN:
           ---                                      ---
             STORAGE =           0.0000               STORAGE =           0.0000
       CONSTANT HEAD =           0.0000         CONSTANT HEAD =           0.0000
               WELLS =           0.0000                 WELLS =           0.0000
       RIVER LEAKAGE =     1426991.7500         RIVER LEAKAGE =        5273.7876
            RECHARGE =       53463.4336              RECHARGE =         564.4509

            TOTAL IN =     1480455.1250              TOTAL IN =        5838.2383

          OUT:                                     OUT:
          ----                                     ----
             STORAGE =     1461553.5000               STORAGE =        5641.1826
       CONSTANT HEAD =           0.0000         CONSTANT HEAD =           0.0000
               WELLS =       18857.3184                 WELLS =         198.4721
       RIVER LEAKAGE =         204.2491         RIVER LEAKAGE =           0.0000
            RECHARGE =           0.0000              RECHARGE =           0.0000

           TOTAL OUT =     1480615.1250             TOTAL OUT =        5839.6548

            IN - OUT =        -160.0000              IN - OUT =          -1.4165

 PERCENT DISCREPANCY =          -0.01     PERCENT DISCREPANCY =          -0.02






         TIME SUMMARY AT END OF TIME STEP   94 IN STRESS PERIOD    2
                    SECONDS     MINUTES      HOURS       DAYS        YEARS
                    -----------------------------------------------------------
   TIME STEP LENGTH  86400.      1440.0      24.000      1.0000     2.73785E-03
 STRESS PERIOD TIME 8.12160E+06 1.35360E+05  2256.0      94.000     0.25736    
         TOTAL TIME 8.20800E+06 1.36800E+05  2280.0      95.000     0.26010    
1

 SOLVING FOR HEAD 

    ------------------------------------------------
       NWT REQUIRED            3 OUTER ITERATIONS 
       AND A TOTAL OF          3 INNER ITERATIONS.
    ------------------------------------------------

 OUTPUT CONTROL FOR STRESS PERIOD    2   TIME STEP   95
    SAVE HEAD FOR ALL LAYERS
    SAVE DRAWDOWN FOR ALL LAYERS
    SAVE BUDGET
    PRINT HEAD FOR ALL LAYERS
    PRINT BUDGET
1
              HEAD IN LAYER   1 AT END OF TIME STEP  95 IN STRESS PERIOD    2
  ---------------------------------------------------------------------------

            1           2           3           4           5           6           7           8           9          10
           11          12          13          14          15          16          17          18          19          20
 ........................................................................................................................
   1    0.000       0.000       0.000       0.000       0.000       7.314       7.307       7.331       7.348       7.361    
        7.376       7.452       7.820       8.359       7.811       7.434       7.369       7.370       0.000       0.000    
   2    0.000       0.000       0.000       0.000       7.360       7.387       7.367       7.415       7.414       7.421    
        7.432       7.487       7.777       8.362       7.744       7.404       7.361       7.368       0.000       0.000    
   3    0.000       0.000       0.000       7.428       7.494       7.695       7.771       7.748       7.696       7.688    
        7.688       7.698       7.787       8.367       7.651       7.335       7.351       7.369       0.000       0.000    
   4    0.000       0.000       7.625       7.674       7.862       8.360       8.354       8.357       8.364       8.362    
        8.362       8.348       8.045       8.373       7.644       7.392       7.370       7.382       0.000       0.000    
   5    0.000       0.000       8.192       8.310       8.374       8.352       7.924       7.773       7.716       7.727    
        7.854       8.357       8.373       8.335       7.615       7.410       7.388       7.400       7.418       0.000    
   6    0.000       8.374       8.376       8.368       8.240       7.789       7.549       7.475       7.454       7.455    
        7.504       7.664       7.693       7.655       7.460       7.396       7.394       7.405       7.419       0.000    
   7    0.000       7.718       7.720       7.705       7.633       7.498       7.430       7.408       7.397       7.389    
        7.391       7.428       7.442       7.435       7.400       7.388       7.390       7.397       0.000       0.000    
   8    0.000       7.470       7.472       7.470       7.454       7.428       7.414       7.405       7.392       7.373    
        7.351       7.371       7.385       7.390       7.384       7.378       7.373       7.381       0.000       0.000    
   9    0.000       0.000       7.429       7.430       7.429       7.425       7.421       7.411       7.393       7.360    
        7.290       7.351       7.374       7.381       7.375       7.359       7.337       7.360       7.378       7.390    
  10    0.000       0.000       7.430       7.431       7.432       7.431       7.426       7.416       7.397       7.370    
        7.341       7.359       7.375       7.379       7.367       7.333       7.254       7.335       7.372       7.388    

 HEAD WILL BE SAVED ON UNIT   51 AT END OF TIME STEP   95, STRESS PERIOD    2

 DRAWDOWN WILL BE SAVED ON UNIT   52 AT END OF TIME STEP   95, STRESS PERIOD    2
1
  VOLUMETRIC BUDGET FOR ENTIRE MODEL AT END OF TIME STEP   95, STRESS PERIOD   2
  ------------------------------------------------------------------------------

     CUMULATIVE VOLUMES      L**3       RATES FOR THIS TIME STEP      L**3/T
     ------------------                 ------------------------

           IN:                                      IN:
           ---                                      ---
             STORAGE =           0.0000               STORAGE =           0.0000
       CONSTANT HEAD =           0.0000         CONSTANT HEAD =           0.0000
               WELLS =           0.0000                 WELLS =           0.0000
       RIVER LEAKAGE =     1432239.3750         RIVER LEAKAGE =        5247.5972
            RECHARGE =       54027.8828              RECHARGE =         564.4509

            TOTAL IN =     1486267.2500              TOTAL IN =        5812.0479

          OUT:                                     OUT:
          ----                                     ----
             STORAGE =     1467168.5000               STORAGE =        5614.9858
       CONSTANT HEAD =           0.0000         CONSTANT HEAD =           0.0000
               WELLS =       19055.7910                 WELLS =         198.4721
       RIVER LEAKAGE =         204.2491         RIVER LEAKAGE =           0.0000
            RECHARGE =           0.0000              RECHARGE =           0.0000

           TOTAL OUT =     1486428.5000             TOTAL OUT =        5813.4580

            IN - OUT =        -161.2500              IN - OUT =          -1.4102

 PERCENT DISCREPANCY =          -0.01     PERCENT DISCREPANCY =          -0.02






         TIME SUMMARY AT END OF TIME STEP   95 IN STRESS PERIOD    2
                    SECONDS     MINUTES      HOURS       DAYS        YEARS
                    -----------------------------------------------------------
   TIME STEP LENGTH  86400.      1440.0      24.000      1.0000     2.73785E-03
 STRESS PERIOD TIME 8.20800E+06 1.36800E+05  2280.0      95.000     0.26010    
         TOTAL TIME 8.29440E+06 1.38240E+05  2304.0      96.000     0.26283    
1

 SOLVING FOR HEAD 

    ------------------------------------------------
       NWT REQUIRED            3 OUTER ITERATIONS 
       AND A TOTAL OF          3 INNER ITERATIONS.
    ------------------------------------------------

 OUTPUT CONTROL FOR STRESS PERIOD    2   TIME STEP   96
    SAVE HEAD FOR ALL LAYERS
    SAVE DRAWDOWN FOR ALL LAYERS
    SAVE BUDGET
    PRINT HEAD FOR ALL LAYERS
    PRINT BUDGET
1
              HEAD IN LAYER   1 AT END OF TIME STEP  96 IN STRESS PERIOD    2
  ---------------------------------------------------------------------------

            1           2           3           4           5           6           7           8           9          10
           11          12          13          14          15          16          17          18          19          20
 ........................................................................................................................
   1    0.000       0.000       0.000       0.000       0.000       7.314       7.308       7.331       7.348       7.361    
        7.377       7.454       7.823       8.359       7.813       7.435       7.370       7.370       0.000       0.000    
   2    0.000       0.000       0.000       0.000       7.361       7.389       7.369       7.417       7.416       7.423    
        7.433       7.489       7.780       8.362       7.747       7.405       7.361       7.368       0.000       0.000    
   3    0.000       0.000       0.000       7.430       7.496       7.697       7.773       7.751       7.699       7.691    
        7.691       7.701       7.791       8.367       7.653       7.336       7.351       7.370       0.000       0.000    
   4    0.000       0.000       7.629       7.677       7.865       8.360       8.354       8.358       8.364       8.362    
        8.362       8.348       8.049       8.373       7.647       7.393       7.370       7.382       0.000       0.000    
   5    0.000       0.000       8.194       8.311       8.374       8.352       7.927       7.776       7.719       7.730    
        7.857       8.357       8.373       8.335       7.616       7.411       7.388       7.400       7.418       0.000    
   6    0.000       8.374       8.376       8.368       8.241       7.791       7.551       7.477       7.455       7.457    
        7.506       7.666       7.695       7.657       7.461       7.397       7.395       7.405       7.419       0.000    
   7    0.000       7.720       7.722       7.708       7.636       7.500       7.431       7.409       7.398       7.389    
        7.392       7.429       7.443       7.436       7.400       7.388       7.390       7.397       0.000       0.000    
   8    0.000       7.472       7.473       7.472       7.455       7.428       7.414       7.405       7.392       7.373    
        7.352       7.372       7.386       7.390       7.384       7.378       7.373       7.381       0.000       0.000    
   9    0.000       0.000       7.429       7.431       7.429       7.425       7.421       7.411       7.393       7.360    
        7.290       7.351       7.375       7.381       7.375       7.359       7.337       7.360       7.378       7.390    
  10    0.000       0.000       7.430       7.431       7.432       7.431       7.426       7.416       7.397       7.370    
        7.341       7.359       7.375       7.379       7.367       7.333       7.254       7.335       7.372       7.388    

 HEAD WILL BE SAVED ON UNIT   51 AT END OF TIME STEP   96, STRESS PERIOD    2

 DRAWDOWN WILL BE SAVED ON UNIT   52 AT END OF TIME STEP   96, STRESS PERIOD    2
1
  VOLUMETRIC BUDGET FOR ENTIRE MODEL AT END OF TIME STEP   96, STRESS PERIOD   2
  ------------------------------------------------------------------------------

     CUMULATIVE VOLUMES      L**3       RATES FOR THIS TIME STEP      L**3/T
     ------------------                 ------------------------

           IN:                                      IN:
           ---                                      ---
             STORAGE =           0.0000               STORAGE =           0.0000
       CONSTANT HEAD =           0.0000         CONSTANT HEAD =           0.0000
               WELLS =           0.0000                 WELLS =           0.0000
       RIVER LEAKAGE =     1437461.1250         RIVER LEAKAGE =        5221.7227
            RECHARGE =       54592.3320              RECHARGE =         564.4509

            TOTAL IN =     1492053.5000              TOTAL IN =        5786.1733

          OUT:                                     OUT:
          ----                                     ----
             STORAGE =     1472757.6250               STORAGE =        5589.1050
       CONSTANT HEAD =           0.0000         CONSTANT HEAD =           0.0000
               WELLS =       19254.2637                 WELLS =         198.4721
       RIVER LEAKAGE =         204.2491         RIVER LEAKAGE =           0.0000
            RECHARGE =           0.0000              RECHARGE =           0.0000

           TOTAL OUT =     1492216.1250             TOTAL OUT =        5787.5771

            IN - OUT =        -162.6250              IN - OUT =          -1.4038

 PERCENT DISCREPANCY =          -0.01     PERCENT DISCREPANCY =          -0.02






         TIME SUMMARY AT END OF TIME STEP   96 IN STRESS PERIOD    2
                    SECONDS     MINUTES      HOURS       DAYS        YEARS
                    -----------------------------------------------------------
   TIME STEP LENGTH  86400.      1440.0      24.000      1.0000     2.73785E-03
 STRESS PERIOD TIME 8.29440E+06 1.38240E+05  2304.0      96.000     0.26283    
         TOTAL TIME 8.38080E+06 1.39680E+05  2328.0      97.000     0.26557    
1

 SOLVING FOR HEAD 

    ------------------------------------------------
       NWT REQUIRED            3 OUTER ITERATIONS 
       AND A TOTAL OF          3 INNER ITERATIONS.
    ------------------------------------------------

 OUTPUT CONTROL FOR STRESS PERIOD    2   TIME STEP   97
    SAVE HEAD FOR ALL LAYERS
    SAVE DRAWDOWN FOR ALL LAYERS
    SAVE BUDGET
    PRINT HEAD FOR ALL LAYERS
    PRINT BUDGET
1
              HEAD IN LAYER   1 AT END OF TIME STEP  97 IN STRESS PERIOD    2
  ---------------------------------------------------------------------------

            1           2           3           4           5           6           7           8           9          10
           11          12          13          14          15          16          17          18          19          20
 ........................................................................................................................
   1    0.000       0.000       0.000       0.000       0.000       7.315       7.308       7.332       7.349       7.362    
        7.378       7.456       7.826       8.359       7.816       7.437       7.370       7.370       0.000       0.000    
   2    0.000       0.000       0.000       0.000       7.362       7.390       7.370       7.419       7.417       7.424    
        7.435       7.492       7.783       8.362       7.750       7.407       7.362       7.368       0.000       0.000    
   3    0.000       0.000       0.000       7.432       7.498       7.700       7.776       7.754       7.701       7.693    
        7.693       7.704       7.795       8.367       7.656       7.337       7.351       7.370       0.000       0.000    
   4    0.000       0.000       7.633       7.680       7.868       8.360       8.355       8.358       8.364       8.363    
        8.362       8.349       8.052       8.373       7.649       7.394       7.370       7.382       0.000       0.000    
   5    0.000       0.000       8.196       8.311       8.374       8.353       7.930       7.779       7.722       7.733    
        7.860       8.357       8.373       8.335       7.618       7.412       7.388       7.400       7.418       0.000    
   6    0.000       8.374       8.376       8.369       8.242       7.794       7.554       7.479       7.457       7.458    
        7.508       7.668       7.698       7.659       7.462       7.397       7.395       7.405       7.419       0.000    
   7    0.000       7.723       7.724       7.710       7.638       7.501       7.432       7.409       7.398       7.389    
        7.393       7.430       7.444       7.437       7.401       7.388       7.390       7.397       0.000       0.000    
   8    0.000       7.473       7.474       7.473       7.456       7.429       7.415       7.406       7.393       7.373    
        7.352       7.372       7.386       7.390       7.384       7.378       7.373       7.381       0.000       0.000    
   9    0.000       0.000       7.430       7.431       7.429       7.426       7.421       7.411       7.393       7.360    
        7.291       7.351       7.375       7.381       7.375       7.359       7.338       7.360       7.378       7.390    
  10    0.000       0.000       7.430       7.431       7.432       7.431       7.426       7.416       7.397       7.370    
        7.341       7.359       7.375       7.379       7.367       7.333       7.254       7.335       7.372       7.388    

 HEAD WILL BE SAVED ON UNIT   51 AT END OF TIME STEP   97, STRESS PERIOD    2

 DRAWDOWN WILL BE SAVED ON UNIT   52 AT END OF TIME STEP   97, STRESS PERIOD    2
1
  VOLUMETRIC BUDGET FOR ENTIRE MODEL AT END OF TIME STEP   97, STRESS PERIOD   2
  ------------------------------------------------------------------------------

     CUMULATIVE VOLUMES      L**3       RATES FOR THIS TIME STEP      L**3/T
     ------------------                 ------------------------

           IN:                                      IN:
           ---                                      ---
             STORAGE =           0.0000               STORAGE =           0.0000
       CONSTANT HEAD =           0.0000         CONSTANT HEAD =           0.0000
               WELLS =           0.0000                 WELLS =           0.0000
       RIVER LEAKAGE =     1442657.2500         RIVER LEAKAGE =        5196.1665
            RECHARGE =       55156.7812              RECHARGE =         564.4509

            TOTAL IN =     1497814.0000              TOTAL IN =        5760.6172

          OUT:                                     OUT:
          ----                                     ----
             STORAGE =     1478321.1250               STORAGE =        5563.5420
       CONSTANT HEAD =           0.0000         CONSTANT HEAD =           0.0000
               WELLS =       19452.7363                 WELLS =         198.4721
       RIVER LEAKAGE =         204.2491         RIVER LEAKAGE =           0.0000
            RECHARGE =           0.0000              RECHARGE =           0.0000

           TOTAL OUT =     1497978.1250             TOTAL OUT =        5762.0142

            IN - OUT =        -164.1250              IN - OUT =          -1.3970

 PERCENT DISCREPANCY =          -0.01     PERCENT DISCREPANCY =          -0.02






         TIME SUMMARY AT END OF TIME STEP   97 IN STRESS PERIOD    2
                    SECONDS     MINUTES      HOURS       DAYS        YEARS
                    -----------------------------------------------------------
   TIME STEP LENGTH  86400.      1440.0      24.000      1.0000     2.73785E-03
 STRESS PERIOD TIME 8.38080E+06 1.39680E+05  2328.0      97.000     0.26557    
         TOTAL TIME 8.46720E+06 1.41120E+05  2352.0      98.000     0.26831    
1

 SOLVING FOR HEAD 

    ------------------------------------------------
       NWT REQUIRED            3 OUTER ITERATIONS 
       AND A TOTAL OF          3 INNER ITERATIONS.
    ------------------------------------------------

 OUTPUT CONTROL FOR STRESS PERIOD    2   TIME STEP   98
    SAVE HEAD FOR ALL LAYERS
    SAVE DRAWDOWN FOR ALL LAYERS
    SAVE BUDGET
    PRINT HEAD FOR ALL LAYERS
    PRINT BUDGET
1
              HEAD IN LAYER   1 AT END OF TIME STEP  98 IN STRESS PERIOD    2
  ---------------------------------------------------------------------------

            1           2           3           4           5           6           7           8           9          10
           11          12          13          14          15          16          17          18          19          20
 ........................................................................................................................
   1    0.000       0.000       0.000       0.000       0.000       7.315       7.309       7.332       7.349       7.362    
        7.378       7.458       7.829       8.359       7.819       7.438       7.370       7.370       0.000       0.000    
   2    0.000       0.000       0.000       0.000       7.363       7.391       7.372       7.420       7.418       7.425    
        7.436       7.494       7.787       8.362       7.752       7.408       7.362       7.368       0.000       0.000    
   3    0.000       0.000       0.000       7.434       7.500       7.702       7.778       7.756       7.704       7.696    
        7.696       7.707       7.799       8.367       7.658       7.338       7.352       7.370       0.000       0.000    
   4    0.000       0.000       7.636       7.683       7.870       8.360       8.355       8.358       8.364       8.363    
        8.362       8.349       8.056       8.373       7.651       7.395       7.371       7.382       0.000       0.000    
   5    0.000       0.000       8.198       8.312       8.375       8.353       7.933       7.781       7.724       7.735    
        7.863       8.358       8.373       8.335       7.620       7.412       7.388       7.400       7.418       0.000    
   6    0.000       8.374       8.376       8.369       8.243       7.797       7.556       7.480       7.458       7.460    
        7.510       7.670       7.700       7.661       7.464       7.398       7.395       7.406       7.419       0.000    
   7    0.000       7.725       7.727       7.712       7.640       7.503       7.433       7.410       7.399       7.390    
        7.393       7.431       7.445       7.438       7.401       7.389       7.390       7.397       0.000       0.000    
   8    0.000       7.475       7.476       7.474       7.457       7.430       7.415       7.406       7.393       7.373    
        7.352       7.372       7.386       7.390       7.385       7.378       7.373       7.381       0.000       0.000    
   9    0.000       0.000       7.430       7.431       7.430       7.426       7.421       7.411       7.393       7.360    
        7.291       7.352       7.375       7.381       7.375       7.359       7.338       7.360       7.378       7.390    
  10    0.000       0.000       7.430       7.431       7.432       7.431       7.426       7.416       7.397       7.370    
        7.341       7.359       7.375       7.379       7.367       7.333       7.254       7.335       7.372       7.388    

 HEAD WILL BE SAVED ON UNIT   51 AT END OF TIME STEP   98, STRESS PERIOD    2

 DRAWDOWN WILL BE SAVED ON UNIT   52 AT END OF TIME STEP   98, STRESS PERIOD    2
1
  VOLUMETRIC BUDGET FOR ENTIRE MODEL AT END OF TIME STEP   98, STRESS PERIOD   2
  ------------------------------------------------------------------------------

     CUMULATIVE VOLUMES      L**3       RATES FOR THIS TIME STEP      L**3/T
     ------------------                 ------------------------

           IN:                                      IN:
           ---                                      ---
             STORAGE =           0.0000               STORAGE =           0.0000
       CONSTANT HEAD =           0.0000         CONSTANT HEAD =           0.0000
               WELLS =           0.0000                 WELLS =           0.0000
       RIVER LEAKAGE =     1447828.1250         RIVER LEAKAGE =        5170.9297
            RECHARGE =       55721.2305              RECHARGE =         564.4509

            TOTAL IN =     1503549.3750              TOTAL IN =        5735.3804

          OUT:                                     OUT:
          ----                                     ----
             STORAGE =     1483859.3750               STORAGE =        5538.2983
       CONSTANT HEAD =           0.0000         CONSTANT HEAD =           0.0000
               WELLS =       19651.2090                 WELLS =         198.4721
       RIVER LEAKAGE =         204.2491         RIVER LEAKAGE =           0.0000
            RECHARGE =           0.0000              RECHARGE =           0.0000

           TOTAL OUT =     1503714.8750             TOTAL OUT =        5736.7705

            IN - OUT =        -165.5000              IN - OUT =          -1.3901

 PERCENT DISCREPANCY =          -0.01     PERCENT DISCREPANCY =          -0.02






         TIME SUMMARY AT END OF TIME STEP   98 IN STRESS PERIOD    2
                    SECONDS     MINUTES      HOURS       DAYS        YEARS
                    -----------------------------------------------------------
   TIME STEP LENGTH  86400.      1440.0      24.000      1.0000     2.73785E-03
 STRESS PERIOD TIME 8.46720E+06 1.41120E+05  2352.0      98.000     0.26831    
         TOTAL TIME 8.55360E+06 1.42560E+05  2376.0      99.000     0.27105    
1

 SOLVING FOR HEAD 

    ------------------------------------------------
       NWT REQUIRED            3 OUTER ITERATIONS 
       AND A TOTAL OF          3 INNER ITERATIONS.
    ------------------------------------------------

 OUTPUT CONTROL FOR STRESS PERIOD    2   TIME STEP   99
    SAVE HEAD FOR ALL LAYERS
    SAVE DRAWDOWN FOR ALL LAYERS
    SAVE BUDGET
    PRINT HEAD FOR ALL LAYERS
    PRINT BUDGET
1
              HEAD IN LAYER   1 AT END OF TIME STEP  99 IN STRESS PERIOD    2
  ---------------------------------------------------------------------------

            1           2           3           4           5           6           7           8           9          10
           11          12          13          14          15          16          17          18          19          20
 ........................................................................................................................
   1    0.000       0.000       0.000       0.000       0.000       7.316       7.309       7.333       7.350       7.363    
        7.379       7.459       7.832       8.360       7.822       7.439       7.371       7.370       0.000       0.000    
   2    0.000       0.000       0.000       0.000       7.364       7.393       7.374       7.422       7.420       7.427    
        7.438       7.496       7.790       8.363       7.755       7.409       7.362       7.368       0.000       0.000    
   3    0.000       0.000       0.000       7.436       7.503       7.704       7.780       7.759       7.707       7.698    
        7.698       7.710       7.803       8.367       7.661       7.339       7.352       7.370       0.000       0.000    
   4    0.000       0.000       7.640       7.686       7.873       8.360       8.355       8.358       8.364       8.363    
        8.362       8.349       8.059       8.373       7.653       7.396       7.371       7.383       0.000       0.000    
   5    0.000       0.000       8.199       8.312       8.375       8.353       7.935       7.784       7.727       7.738    
        7.865       8.358       8.373       8.335       7.622       7.413       7.389       7.400       7.418       0.000    
   6    0.000       8.374       8.376       8.369       8.244       7.799       7.559       7.482       7.460       7.461    
        7.512       7.672       7.702       7.663       7.465       7.398       7.395       7.406       7.419       0.000    
   7    0.000       7.728       7.729       7.714       7.643       7.505       7.434       7.410       7.399       7.390    
        7.394       7.432       7.446       7.439       7.401       7.389       7.390       7.397       0.000       0.000    
   8    0.000       7.476       7.477       7.475       7.458       7.430       7.415       7.406       7.393       7.373    
        7.352       7.373       7.387       7.391       7.385       7.378       7.374       7.381       0.000       0.000    
   9    0.000       0.000       7.430       7.432       7.430       7.426       7.421       7.411       7.393       7.360    
        7.291       7.352       7.375       7.381       7.375       7.359       7.338       7.360       7.378       7.390    
  10    0.000       0.000       7.430       7.431       7.432       7.431       7.426       7.416       7.397       7.370    
        7.341       7.359       7.375       7.379       7.367       7.333       7.254       7.335       7.372       7.388    

 HEAD WILL BE SAVED ON UNIT   51 AT END OF TIME STEP   99, STRESS PERIOD    2

 DRAWDOWN WILL BE SAVED ON UNIT   52 AT END OF TIME STEP   99, STRESS PERIOD    2
1
  VOLUMETRIC BUDGET FOR ENTIRE MODEL AT END OF TIME STEP   99, STRESS PERIOD   2
  ------------------------------------------------------------------------------

     CUMULATIVE VOLUMES      L**3       RATES FOR THIS TIME STEP      L**3/T
     ------------------                 ------------------------

           IN:                                      IN:
           ---                                      ---
             STORAGE =           0.0000               STORAGE =           0.0000
       CONSTANT HEAD =           0.0000         CONSTANT HEAD =           0.0000
               WELLS =           0.0000                 WELLS =           0.0000
       RIVER LEAKAGE =     1452974.1250         RIVER LEAKAGE =        5145.9976
            RECHARGE =       56285.6797              RECHARGE =         564.4509

            TOTAL IN =     1509259.7500              TOTAL IN =        5710.4482

          OUT:                                     OUT:
          ----                                     ----
             STORAGE =     1489372.7500               STORAGE =        5513.3604
       CONSTANT HEAD =           0.0000         CONSTANT HEAD =           0.0000
               WELLS =       19849.6816                 WELLS =         198.4721
       RIVER LEAKAGE =         204.2491         RIVER LEAKAGE =           0.0000
            RECHARGE =           0.0000              RECHARGE =           0.0000

           TOTAL OUT =     1509426.6250             TOTAL OUT =        5711.8325

            IN - OUT =        -166.8750              IN - OUT =          -1.3843

 PERCENT DISCREPANCY =          -0.01     PERCENT DISCREPANCY =          -0.02






         TIME SUMMARY AT END OF TIME STEP   99 IN STRESS PERIOD    2
                    SECONDS     MINUTES      HOURS       DAYS        YEARS
                    -----------------------------------------------------------
   TIME STEP LENGTH  86400.      1440.0      24.000      1.0000     2.73785E-03
 STRESS PERIOD TIME 8.55360E+06 1.42560E+05  2376.0      99.000     0.27105    
         TOTAL TIME 8.64000E+06 1.44000E+05  2400.0      100.00     0.27379    
1

 SOLVING FOR HEAD 

    ------------------------------------------------
       NWT REQUIRED            3 OUTER ITERATIONS 
       AND A TOTAL OF          3 INNER ITERATIONS.
    ------------------------------------------------

 OUTPUT CONTROL FOR STRESS PERIOD    2   TIME STEP  100
    SAVE HEAD FOR ALL LAYERS
    SAVE DRAWDOWN FOR ALL LAYERS
    SAVE BUDGET
    PRINT HEAD FOR ALL LAYERS
    PRINT BUDGET
1
              HEAD IN LAYER   1 AT END OF TIME STEP 100 IN STRESS PERIOD    2
  ---------------------------------------------------------------------------

            1           2           3           4           5           6           7           8           9          10
           11          12          13          14          15          16          17          18          19          20
 ........................................................................................................................
   1    0.000       0.000       0.000       0.000       0.000       7.316       7.310       7.334       7.350       7.363    
        7.380       7.461       7.834       8.360       7.824       7.441       7.371       7.370       0.000       0.000    
   2    0.000       0.000       0.000       0.000       7.365       7.394       7.375       7.424       7.421       7.428    
        7.439       7.498       7.793       8.363       7.757       7.411       7.363       7.368       0.000       0.000    
   3    0.000       0.000       0.000       7.438       7.505       7.707       7.783       7.761       7.709       7.700    
        7.701       7.713       7.806       8.367       7.663       7.340       7.352       7.370       0.000       0.000    
   4    0.000       0.000       7.644       7.689       7.876       8.360       8.355       8.358       8.364       8.363    
        8.362       8.349       8.062       8.373       7.655       7.397       7.371       7.383       0.000       0.000    
   5    0.000       0.000       8.201       8.313       8.375       8.353       7.938       7.787       7.729       7.741    
        7.868       8.358       8.373       8.336       7.624       7.414       7.389       7.400       7.418       0.000    
   6    0.000       8.375       8.376       8.369       8.244       7.802       7.561       7.484       7.461       7.463    
        7.514       7.674       7.704       7.665       7.466       7.399       7.395       7.406       7.419       0.000    
   7    0.000       7.730       7.731       7.717       7.645       7.506       7.434       7.411       7.400       7.391    
        7.395       7.433       7.447       7.440       7.402       7.389       7.390       7.397       0.000       0.000    
   8    0.000       7.478       7.478       7.476       7.459       7.431       7.415       7.406       7.393       7.373    
        7.352       7.373       7.387       7.391       7.385       7.378       7.374       7.381       0.000       0.000    
   9    0.000       0.000       7.431       7.432       7.430       7.426       7.421       7.411       7.393       7.361    
        7.291       7.352       7.375       7.381       7.375       7.359       7.338       7.360       7.378       7.390    
  10    0.000       0.000       7.430       7.431       7.432       7.431       7.426       7.416       7.397       7.370    
        7.341       7.359       7.375       7.379       7.367       7.333       7.254       7.335       7.372       7.388    

 HEAD WILL BE SAVED ON UNIT   51 AT END OF TIME STEP  100, STRESS PERIOD    2

 DRAWDOWN WILL BE SAVED ON UNIT   52 AT END OF TIME STEP  100, STRESS PERIOD    2
1
  VOLUMETRIC BUDGET FOR ENTIRE MODEL AT END OF TIME STEP  100, STRESS PERIOD   2
  ------------------------------------------------------------------------------

     CUMULATIVE VOLUMES      L**3       RATES FOR THIS TIME STEP      L**3/T
     ------------------                 ------------------------

           IN:                                      IN:
           ---                                      ---
             STORAGE =           0.0000               STORAGE =           0.0000
       CONSTANT HEAD =           0.0000         CONSTANT HEAD =           0.0000
               WELLS =           0.0000                 WELLS =           0.0000
       RIVER LEAKAGE =     1458095.5000         RIVER LEAKAGE =        5121.3467
            RECHARGE =       56850.1289              RECHARGE =         564.4509

            TOTAL IN =     1514945.6250              TOTAL IN =        5685.7974

          OUT:                                     OUT:
          ----                                     ----
             STORAGE =     1494861.5000               STORAGE =        5488.7031
       CONSTANT HEAD =           0.0000         CONSTANT HEAD =           0.0000
               WELLS =       20048.1543                 WELLS =         198.4721
       RIVER LEAKAGE =         204.2491         RIVER LEAKAGE =           0.0000
            RECHARGE =           0.0000              RECHARGE =           0.0000

           TOTAL OUT =     1515113.8750             TOTAL OUT =        5687.1753

            IN - OUT =        -168.2500              IN - OUT =          -1.3779

 PERCENT DISCREPANCY =          -0.01     PERCENT DISCREPANCY =          -0.02






         TIME SUMMARY AT END OF TIME STEP  100 IN STRESS PERIOD    2
                    SECONDS     MINUTES      HOURS       DAYS        YEARS
                    -----------------------------------------------------------
   TIME STEP LENGTH  86400.      1440.0      24.000      1.0000     2.73785E-03
 STRESS PERIOD TIME 8.64000E+06 1.44000E+05  2400.0      100.00     0.27379    
         TOTAL TIME 8.72640E+06 1.45440E+05  2424.0      101.00     0.27652    
1
1
                            STRESS PERIOD NO.    3, LENGTH =   100.0000    
                            -----------------------------------------------

                              NUMBER OF TIME STEPS =   100

                               MULTIPLIER FOR DELT =     1.000

                            INITIAL TIME STEP SIZE =   1.000000    

 WELL NO.  LAYER   ROW   COL   STRESS RATE         
 --------------------------------------------------
      1      1      9     11      -55.90    
      2      1     10     17      -55.90    
      3      1      3     16      -55.90    
      4      1      2      7      -55.90    

      4 WELLS

 REACH NO.  LAYER   ROW   COL     STAGE      CONDUCTANCE     BOTTOM EL.         
 -------------------------------------------------------------------------------
      1      1      1     14       7.354          0.1364E+05       5.000    
      2      1      2     14       7.354          0.1356E+05       5.000    
      3      1      3     14       7.354          0.1211E+05       5.000    
      4      1      4      6       7.354          0.1092E+05       5.000    
      5      1      4      7       7.354          0.1135E+05       5.000    
      6      1      4      8       7.354          0.1182E+05       5.000    
      7      1      4      9       7.354          0.1307E+05       5.000    
      8      1      4     10       7.354          0.1202E+05       5.000    
      9      1      4     11       7.354          0.1073E+05       5.000    
     10      1      4     12       7.354           5202.           5.000    
     11      1      4     14       7.354          0.1496E+05       5.000    
     12      1      5      3       7.354           689.5           5.000    
     13      1      5      4       7.354           2047.           5.000    
     14      1      5      5       7.354          0.1346E+05       5.000    
     15      1      5      6       7.354           5948.           5.000    
     16      1      5     12       7.354           8376.           5.000    
     17      1      5     13       7.354          0.1677E+05       5.000    
     18      1      5     14       7.354           5193.           5.000    
     19      1      6      2       7.354          0.1209E+05       5.000    
     20      1      6      3       7.354          0.1807E+05       5.000    
     21      1      6      4       7.354          0.1027E+05       5.000    
     22      1      6      5       7.354           1327.           5.000    

     22 RIVER REACHES



                           RECHARGE
 READING ON UNIT   19 WITH FORMAT: (20G15.6)           

 SOLVING FOR HEAD 

    ------------------------------------------------
       NWT REQUIRED            4 OUTER ITERATIONS 
       AND A TOTAL OF          6 INNER ITERATIONS.
    ------------------------------------------------

 OUTPUT CONTROL FOR STRESS PERIOD    3   TIME STEP    1
    SAVE HEAD FOR ALL LAYERS
    SAVE DRAWDOWN FOR ALL LAYERS
    SAVE BUDGET
    PRINT HEAD FOR ALL LAYERS
    PRINT BUDGET
1
              HEAD IN LAYER   1 AT END OF TIME STEP   1 IN STRESS PERIOD    3
  ---------------------------------------------------------------------------

            1           2           3           4           5           6           7           8           9          10
           11          12          13          14          15          16          17          18          19          20
 ........................................................................................................................
   1    0.000       0.000       0.000       0.000       0.000       7.317       7.311       7.334       7.351       7.364    
        7.381       7.463       7.835       8.087       7.825       7.442       7.371       7.370       0.000       0.000    
   2    0.000       0.000       0.000       0.000       7.366       7.396       7.377       7.425       7.423       7.429    
        7.441       7.501       7.794       8.091       7.758       7.412       7.363       7.368       0.000       0.000    
   3    0.000       0.000       0.000       7.440       7.507       7.707       7.783       7.762       7.710       7.701    
        7.702       7.715       7.809       8.116       7.664       7.341       7.352       7.370       0.000       0.000    
   4    0.000       0.000       7.647       7.692       7.875       8.129       8.118       8.113       8.099       8.114    
        8.135       8.224       8.062       8.081       7.656       7.398       7.371       7.383       0.000       0.000    
   5    0.000       0.000       8.182       8.258       8.105       8.212       7.938       7.788       7.730       7.742    
        7.868       8.170       8.057       8.209       7.625       7.415       7.389       7.400       7.418       0.000    
   6    0.000       8.123       8.043       8.148       8.208       7.804       7.563       7.486       7.462       7.464    
        7.516       7.675       7.704       7.666       7.468       7.399       7.395       7.406       7.419       0.000    
   7    0.000       7.731       7.732       7.718       7.647       7.508       7.435       7.411       7.400       7.391    
        7.395       7.434       7.448       7.441       7.402       7.389       7.390       7.397       0.000       0.000    
   8    0.000       7.479       7.480       7.477       7.460       7.431       7.416       7.406       7.393       7.373    
        7.352       7.373       7.387       7.391       7.385       7.378       7.374       7.381       0.000       0.000    
   9    0.000       0.000       7.431       7.432       7.430       7.426       7.421       7.411       7.393       7.361    
        7.291       7.352       7.375       7.381       7.375       7.359       7.338       7.360       7.378       7.390    
  10    0.000       0.000       7.430       7.432       7.432       7.431       7.426       7.416       7.397       7.370    
        7.341       7.359       7.375       7.379       7.367       7.333       7.254       7.335       7.372       7.388    

 HEAD WILL BE SAVED ON UNIT   51 AT END OF TIME STEP    1, STRESS PERIOD    3

 DRAWDOWN WILL BE SAVED ON UNIT   52 AT END OF TIME STEP    1, STRESS PERIOD    3
1
  VOLUMETRIC BUDGET FOR ENTIRE MODEL AT END OF TIME STEP    1, STRESS PERIOD   3
  ------------------------------------------------------------------------------

     CUMULATIVE VOLUMES      L**3       RATES FOR THIS TIME STEP      L**3/T
     ------------------                 ------------------------

           IN:                                      IN:
           ---                                      ---
             STORAGE =      172911.5156               STORAGE =      172911.5156
       CONSTANT HEAD =           0.0000         CONSTANT HEAD =           0.0000
               WELLS =           0.0000                 WELLS =           0.0000
       RIVER LEAKAGE =     1458095.5000         RIVER LEAKAGE =           0.0000
            RECHARGE =       57193.6172              RECHARGE =         343.4863

            TOTAL IN =     1688200.6250              TOTAL IN =      173255.0000

          OUT:                                     OUT:
          ----                                     ----
             STORAGE =     1498078.0000               STORAGE =        3216.4944
       CONSTANT HEAD =           0.0000         CONSTANT HEAD =           0.0000
               WELLS =       20271.7480                 WELLS =         223.5936
       RIVER LEAKAGE =      170016.3438         RIVER LEAKAGE =      169812.0938
            RECHARGE =           0.0000              RECHARGE =           0.0000

           TOTAL OUT =     1688366.1250             TOTAL OUT =      173252.1875

            IN - OUT =        -165.5000              IN - OUT =           2.8125

 PERCENT DISCREPANCY =          -0.01     PERCENT DISCREPANCY =           0.00






         TIME SUMMARY AT END OF TIME STEP    1 IN STRESS PERIOD    3
                    SECONDS     MINUTES      HOURS       DAYS        YEARS
                    -----------------------------------------------------------
   TIME STEP LENGTH  86400.      1440.0      24.000      1.0000     2.73785E-03
 STRESS PERIOD TIME  86400.      1440.0      24.000      1.0000     2.73785E-03
         TOTAL TIME 8.81280E+06 1.46880E+05  2448.0      102.00     0.27926    
1

 SOLVING FOR HEAD 

    ------------------------------------------------
       NWT REQUIRED            4 OUTER ITERATIONS 
       AND A TOTAL OF          5 INNER ITERATIONS.
    ------------------------------------------------

 OUTPUT CONTROL FOR STRESS PERIOD    3   TIME STEP    2
    SAVE HEAD FOR ALL LAYERS
    SAVE DRAWDOWN FOR ALL LAYERS
    SAVE BUDGET
    PRINT HEAD FOR ALL LAYERS
    PRINT BUDGET
1
              HEAD IN LAYER   1 AT END OF TIME STEP   2 IN STRESS PERIOD    3
  ---------------------------------------------------------------------------

            1           2           3           4           5           6           7           8           9          10
           11          12          13          14          15          16          17          18          19          20
 ........................................................................................................................
   1    0.000       0.000       0.000       0.000       0.000       7.317       7.311       7.335       7.351       7.364    
        7.381       7.464       7.833       7.890       7.823       7.444       7.372       7.370       0.000       0.000    
   2    0.000       0.000       0.000       0.000       7.367       7.397       7.378       7.427       7.424       7.430    
        7.442       7.503       7.794       7.893       7.757       7.413       7.363       7.369       0.000       0.000    
   3    0.000       0.000       0.000       7.442       7.509       7.706       7.781       7.761       7.710       7.701    
        7.702       7.717       7.810       7.928       7.665       7.342       7.353       7.370       0.000       0.000    
   4    0.000       0.000       7.650       7.694       7.873       7.953       7.939       7.929       7.905       7.927    
        7.959       8.114       8.058       7.874       7.656       7.399       7.372       7.383       0.000       0.000    
   5    0.000       0.000       8.163       8.206       7.909       8.090       7.936       7.788       7.730       7.742    
        7.867       8.018       7.841       8.098       7.626       7.416       7.389       7.400       7.418       0.000    
   6    0.000       7.934       7.820       7.977       8.171       7.804       7.566       7.487       7.464       7.466    
        7.518       7.675       7.703       7.667       7.469       7.399       7.395       7.406       7.419       0.000    
   7    0.000       7.731       7.731       7.718       7.648       7.510       7.436       7.412       7.400       7.392    
        7.396       7.435       7.450       7.442       7.403       7.389       7.390       7.397       0.000       0.000    
   8    0.000       7.481       7.481       7.478       7.460       7.432       7.416       7.406       7.393       7.373    
        7.353       7.373       7.388       7.391       7.385       7.378       7.374       7.381       0.000       0.000    
   9    0.000       0.000       7.431       7.432       7.431       7.426       7.421       7.411       7.393       7.361    
        7.290       7.352       7.375       7.381       7.375       7.359       7.338       7.360       7.378       7.390    
  10    0.000       0.000       7.430       7.432       7.432       7.431       7.426       7.416       7.397       7.370    
        7.341       7.359       7.375       7.379       7.367       7.333       7.254       7.335       7.372       7.388    

 HEAD WILL BE SAVED ON UNIT   51 AT END OF TIME STEP    2, STRESS PERIOD    3

 DRAWDOWN WILL BE SAVED ON UNIT   52 AT END OF TIME STEP    2, STRESS PERIOD    3
1
  VOLUMETRIC BUDGET FOR ENTIRE MODEL AT END OF TIME STEP    2, STRESS PERIOD   3
  ------------------------------------------------------------------------------

     CUMULATIVE VOLUMES      L**3       RATES FOR THIS TIME STEP      L**3/T
     ------------------                 ------------------------

           IN:                                      IN:
           ---                                      ---
             STORAGE =      303914.9062               STORAGE =      131003.3906
       CONSTANT HEAD =           0.0000         CONSTANT HEAD =           0.0000
               WELLS =           0.0000                 WELLS =           0.0000
       RIVER LEAKAGE =     1458095.5000         RIVER LEAKAGE =           0.0000
            RECHARGE =       57537.1016              RECHARGE =         343.4863

            TOTAL IN =     1819547.5000              TOTAL IN =      131346.8750

          OUT:                                     OUT:
          ----                                     ----
             STORAGE =     1500575.1250               STORAGE =        2497.1216
       CONSTANT HEAD =           0.0000         CONSTANT HEAD =           0.0000
               WELLS =       20495.3418                 WELLS =         223.5936
       RIVER LEAKAGE =      298640.3750         RIVER LEAKAGE =      128624.0391
            RECHARGE =           0.0000              RECHARGE =           0.0000

           TOTAL OUT =     1819710.8750             TOTAL OUT =      131344.7500

            IN - OUT =        -163.3750              IN - OUT =           2.1250

 PERCENT DISCREPANCY =          -0.01     PERCENT DISCREPANCY =           0.00






         TIME SUMMARY AT END OF TIME STEP    2 IN STRESS PERIOD    3
                    SECONDS     MINUTES      HOURS       DAYS        YEARS
                    -----------------------------------------------------------
   TIME STEP LENGTH  86400.      1440.0      24.000      1.0000     2.73785E-03
 STRESS PERIOD TIME 1.72800E+05  2880.0      48.000      2.0000     5.47570E-03
         TOTAL TIME 8.89920E+06 1.48320E+05  2472.0      103.00     0.28200    
1

 SOLVING FOR HEAD 

    ------------------------------------------------
       NWT REQUIRED            4 OUTER ITERATIONS 
       AND A TOTAL OF          5 INNER ITERATIONS.
    ------------------------------------------------

 OUTPUT CONTROL FOR STRESS PERIOD    3   TIME STEP    3
    SAVE HEAD FOR ALL LAYERS
    SAVE DRAWDOWN FOR ALL LAYERS
    SAVE BUDGET
    PRINT HEAD FOR ALL LAYERS
    PRINT BUDGET
1
              HEAD IN LAYER   1 AT END OF TIME STEP   3 IN STRESS PERIOD    3
  ---------------------------------------------------------------------------

            1           2           3           4           5           6           7           8           9          10
           11          12          13          14          15          16          17          18          19          20
 ........................................................................................................................
   1    0.000       0.000       0.000       0.000       0.000       7.318       7.312       7.335       7.352       7.364    
        7.382       7.466       7.831       7.748       7.820       7.445       7.372       7.370       0.000       0.000    
   2    0.000       0.000       0.000       0.000       7.368       7.398       7.380       7.428       7.425       7.432    
        7.444       7.505       7.792       7.750       7.755       7.414       7.364       7.369       0.000       0.000    
   3    0.000       0.000       0.000       7.444       7.511       7.705       7.778       7.758       7.709       7.700    
        7.701       7.718       7.811       7.786       7.664       7.343       7.353       7.370       0.000       0.000    
   4    0.000       0.000       7.654       7.696       7.869       7.818       7.803       7.790       7.762       7.787    
        7.824       8.018       8.053       7.728       7.655       7.400       7.372       7.383       0.000       0.000    
   5    0.000       0.000       8.142       8.155       7.766       7.986       7.932       7.786       7.729       7.741    
        7.864       7.895       7.693       8.002       7.626       7.416       7.389       7.401       7.418       0.000    
   6    0.000       7.791       7.671       7.844       8.136       7.804       7.568       7.489       7.465       7.467    
        7.520       7.674       7.702       7.667       7.470       7.400       7.395       7.406       7.419       0.000    
   7    0.000       7.730       7.729       7.717       7.650       7.511       7.437       7.413       7.401       7.392    
        7.397       7.436       7.451       7.443       7.403       7.389       7.390       7.397       0.000       0.000    
   8    0.000       7.482       7.482       7.480       7.461       7.432       7.416       7.406       7.393       7.373    
        7.353       7.374       7.388       7.392       7.385       7.378       7.374       7.381       0.000       0.000    
   9    0.000       0.000       7.432       7.433       7.431       7.426       7.421       7.411       7.393       7.361    
        7.290       7.352       7.375       7.382       7.375       7.359       7.338       7.360       7.378       7.390    
  10    0.000       0.000       7.431       7.432       7.432       7.431       7.426       7.416       7.397       7.370    
        7.341       7.359       7.375       7.379       7.367       7.333       7.254       7.335       7.372       7.388    

 HEAD WILL BE SAVED ON UNIT   51 AT END OF TIME STEP    3, STRESS PERIOD    3

 DRAWDOWN WILL BE SAVED ON UNIT   52 AT END OF TIME STEP    3, STRESS PERIOD    3
1
  VOLUMETRIC BUDGET FOR ENTIRE MODEL AT END OF TIME STEP    3, STRESS PERIOD   3
  ------------------------------------------------------------------------------

     CUMULATIVE VOLUMES      L**3       RATES FOR THIS TIME STEP      L**3/T
     ------------------                 ------------------------

           IN:                                      IN:
           ---                                      ---
             STORAGE =      404318.8125               STORAGE =      100403.8906
       CONSTANT HEAD =           0.0000         CONSTANT HEAD =           0.0000
               WELLS =           0.0000                 WELLS =           0.0000
       RIVER LEAKAGE =     1458095.5000         RIVER LEAKAGE =           0.0000
            RECHARGE =       57880.5859              RECHARGE =         343.4863

            TOTAL IN =     1920294.8750              TOTAL IN =      100747.3750

          OUT:                                     OUT:
          ----                                     ----
             STORAGE =     1502900.8750               STORAGE =        2325.7012
       CONSTANT HEAD =           0.0000         CONSTANT HEAD =           0.0000
               WELLS =       20718.9355                 WELLS =         223.5936
       RIVER LEAKAGE =      396836.8438         RIVER LEAKAGE =       98196.4766
            RECHARGE =           0.0000              RECHARGE =           0.0000

           TOTAL OUT =     1920456.6250             TOTAL OUT =      100745.7734

            IN - OUT =        -161.7500              IN - OUT =           1.6016

 PERCENT DISCREPANCY =          -0.01     PERCENT DISCREPANCY =           0.00






         TIME SUMMARY AT END OF TIME STEP    3 IN STRESS PERIOD    3
                    SECONDS     MINUTES      HOURS       DAYS        YEARS
                    -----------------------------------------------------------
   TIME STEP LENGTH  86400.      1440.0      24.000      1.0000     2.73785E-03
 STRESS PERIOD TIME 2.59200E+05  4320.0      72.000      3.0000     8.21355E-03
         TOTAL TIME 8.98560E+06 1.49760E+05  2496.0      104.00     0.28474    
1

 SOLVING FOR HEAD 

    ------------------------------------------------
       NWT REQUIRED            4 OUTER ITERATIONS 
       AND A TOTAL OF          5 INNER ITERATIONS.
    ------------------------------------------------

 OUTPUT CONTROL FOR STRESS PERIOD    3   TIME STEP    4
    SAVE HEAD FOR ALL LAYERS
    SAVE DRAWDOWN FOR ALL LAYERS
    SAVE BUDGET
    PRINT HEAD FOR ALL LAYERS
    PRINT BUDGET
1
              HEAD IN LAYER   1 AT END OF TIME STEP   4 IN STRESS PERIOD    3
  ---------------------------------------------------------------------------

            1           2           3           4           5           6           7           8           9          10
           11          12          13          14          15          16          17          18          19          20
 ........................................................................................................................
   1    0.000       0.000       0.000       0.000       0.000       7.318       7.312       7.336       7.352       7.365    
        7.383       7.468       7.827       7.645       7.817       7.446       7.373       7.370       0.000       0.000    
   2    0.000       0.000       0.000       0.000       7.369       7.400       7.381       7.430       7.427       7.433    
        7.445       7.507       7.790       7.646       7.753       7.416       7.364       7.369       0.000       0.000    
   3    0.000       0.000       0.000       7.445       7.513       7.702       7.773       7.756       7.707       7.699    
        7.700       7.718       7.811       7.680       7.663       7.344       7.353       7.370       0.000       0.000    
   4    0.000       0.000       7.657       7.698       7.864       7.714       7.701       7.686       7.657       7.682    
        7.721       7.935       8.047       7.624       7.654       7.401       7.372       7.383       0.000       0.000    
   5    0.000       0.000       8.122       8.107       7.662       7.897       7.927       7.784       7.728       7.740    
        7.861       7.796       7.592       7.917       7.626       7.417       7.389       7.401       7.418       0.000    
   6    0.000       7.684       7.572       7.741       8.101       7.803       7.570       7.490       7.466       7.469    
        7.522       7.673       7.699       7.666       7.471       7.400       7.395       7.406       7.419       0.000    
   7    0.000       7.728       7.727       7.715       7.651       7.513       7.438       7.413       7.401       7.393    
        7.397       7.437       7.452       7.444       7.404       7.389       7.390       7.397       0.000       0.000    
   8    0.000       7.484       7.483       7.481       7.462       7.433       7.416       7.406       7.393       7.374    
        7.353       7.374       7.388       7.392       7.385       7.378       7.374       7.381       0.000       0.000    
   9    0.000       0.000       7.432       7.433       7.431       7.426       7.421       7.411       7.393       7.361    
        7.290       7.352       7.375       7.382       7.376       7.359       7.338       7.360       7.378       7.390    
  10    0.000       0.000       7.431       7.432       7.432       7.431       7.426       7.416       7.397       7.370    
        7.341       7.359       7.375       7.379       7.367       7.333       7.254       7.335       7.372       7.388    

 HEAD WILL BE SAVED ON UNIT   51 AT END OF TIME STEP    4, STRESS PERIOD    3

 DRAWDOWN WILL BE SAVED ON UNIT   52 AT END OF TIME STEP    4, STRESS PERIOD    3
1
  VOLUMETRIC BUDGET FOR ENTIRE MODEL AT END OF TIME STEP    4, STRESS PERIOD   3
  ------------------------------------------------------------------------------

     CUMULATIVE VOLUMES      L**3       RATES FOR THIS TIME STEP      L**3/T
     ------------------                 ------------------------

           IN:                                      IN:
           ---                                      ---
             STORAGE =      482055.1875               STORAGE =       77736.3828
       CONSTANT HEAD =           0.0000         CONSTANT HEAD =           0.0000
               WELLS =           0.0000                 WELLS =           0.0000
       RIVER LEAKAGE =     1458095.5000         RIVER LEAKAGE =           0.0000
            RECHARGE =       58224.0703              RECHARGE =         343.4863

            TOTAL IN =     1998374.8750              TOTAL IN =       78079.8672

          OUT:                                     OUT:
          ----                                     ----
             STORAGE =     1505132.1250               STORAGE =        2231.2852
       CONSTANT HEAD =           0.0000         CONSTANT HEAD =           0.0000
               WELLS =       20942.5293                 WELLS =         223.5936
       RIVER LEAKAGE =      472460.6250         RIVER LEAKAGE =       75623.7656
            RECHARGE =           0.0000              RECHARGE =           0.0000

           TOTAL OUT =     1998535.2500             TOTAL OUT =       78078.6406

            IN - OUT =        -160.3750              IN - OUT =           1.2266

 PERCENT DISCREPANCY =          -0.01     PERCENT DISCREPANCY =           0.00






         TIME SUMMARY AT END OF TIME STEP    4 IN STRESS PERIOD    3
                    SECONDS     MINUTES      HOURS       DAYS        YEARS
                    -----------------------------------------------------------
   TIME STEP LENGTH  86400.      1440.0      24.000      1.0000     2.73785E-03
 STRESS PERIOD TIME 3.45600E+05  5760.0      96.000      4.0000     1.09514E-02
         TOTAL TIME 9.07200E+06 1.51200E+05  2520.0      105.00     0.28747    
1

 SOLVING FOR HEAD 

    ------------------------------------------------
       NWT REQUIRED            4 OUTER ITERATIONS 
       AND A TOTAL OF          5 INNER ITERATIONS.
    ------------------------------------------------

 OUTPUT CONTROL FOR STRESS PERIOD    3   TIME STEP    5
    SAVE HEAD FOR ALL LAYERS
    SAVE DRAWDOWN FOR ALL LAYERS
    SAVE BUDGET
    PRINT HEAD FOR ALL LAYERS
    PRINT BUDGET
1
              HEAD IN LAYER   1 AT END OF TIME STEP   5 IN STRESS PERIOD    3
  ---------------------------------------------------------------------------

            1           2           3           4           5           6           7           8           9          10
           11          12          13          14          15          16          17          18          19          20
 ........................................................................................................................
   1    0.000       0.000       0.000       0.000       0.000       7.319       7.313       7.336       7.353       7.365    
        7.384       7.469       7.823       7.570       7.812       7.448       7.373       7.370       0.000       0.000    
   2    0.000       0.000       0.000       0.000       7.370       7.401       7.383       7.431       7.428       7.434    
        7.446       7.509       7.788       7.571       7.750       7.417       7.364       7.369       0.000       0.000    
   3    0.000       0.000       0.000       7.447       7.515       7.700       7.769       7.752       7.705       7.697    
        7.698       7.718       7.811       7.601       7.662       7.345       7.354       7.370       0.000       0.000    
   4    0.000       0.000       7.660       7.699       7.859       7.635       7.623       7.608       7.580       7.603    
        7.641       7.862       8.039       7.550       7.652       7.402       7.372       7.383       0.000       0.000    
   5    0.000       0.000       8.102       8.062       7.586       7.821       7.922       7.782       7.726       7.738    
        7.856       7.715       7.523       7.844       7.625       7.418       7.390       7.401       7.418       0.000    
   6    0.000       7.604       7.505       7.660       8.067       7.802       7.572       7.492       7.468       7.470    
        7.523       7.672       7.697       7.665       7.472       7.401       7.395       7.406       7.419       0.000    
   7    0.000       7.726       7.724       7.713       7.652       7.515       7.439       7.414       7.402       7.393    
        7.398       7.438       7.453       7.445       7.404       7.389       7.390       7.397       0.000       0.000    
   8    0.000       7.485       7.484       7.482       7.463       7.433       7.417       7.406       7.393       7.374    
        7.353       7.374       7.388       7.392       7.385       7.378       7.374       7.381       0.000       0.000    
   9    0.000       0.000       7.433       7.433       7.431       7.427       7.421       7.411       7.393       7.361    
        7.290       7.352       7.375       7.382       7.376       7.359       7.338       7.360       7.378       7.390    
  10    0.000       0.000       7.431       7.432       7.432       7.431       7.426       7.416       7.397       7.370    
        7.341       7.359       7.375       7.379       7.367       7.333       7.253       7.335       7.372       7.388    

 HEAD WILL BE SAVED ON UNIT   51 AT END OF TIME STEP    5, STRESS PERIOD    3

 DRAWDOWN WILL BE SAVED ON UNIT   52 AT END OF TIME STEP    5, STRESS PERIOD    3
1
  VOLUMETRIC BUDGET FOR ENTIRE MODEL AT END OF TIME STEP    5, STRESS PERIOD   3
  ------------------------------------------------------------------------------

     CUMULATIVE VOLUMES      L**3       RATES FOR THIS TIME STEP      L**3/T
     ------------------                 ------------------------

           IN:                                      IN:
           ---                                      ---
             STORAGE =      542896.7500               STORAGE =       60841.5312
       CONSTANT HEAD =           0.0000         CONSTANT HEAD =           0.0000
               WELLS =           0.0000                 WELLS =           0.0000
       RIVER LEAKAGE =     1458095.5000         RIVER LEAKAGE =           0.0000
            RECHARGE =       58567.5547              RECHARGE =         343.4863

            TOTAL IN =     2059559.7500              TOTAL IN =       61185.0156

          OUT:                                     OUT:
          ----                                     ----
             STORAGE =     1507288.5000               STORAGE =        2156.4214
       CONSTANT HEAD =           0.0000         CONSTANT HEAD =           0.0000
               WELLS =       21166.1230                 WELLS =         223.5936
       RIVER LEAKAGE =      531264.6875         RIVER LEAKAGE =       58804.0586
            RECHARGE =           0.0000              RECHARGE =           0.0000

           TOTAL OUT =     2059719.2500             TOTAL OUT =       61184.0742

            IN - OUT =        -159.5000              IN - OUT =           0.9414

 PERCENT DISCREPANCY =          -0.01     PERCENT DISCREPANCY =           0.00






         TIME SUMMARY AT END OF TIME STEP    5 IN STRESS PERIOD    3
                    SECONDS     MINUTES      HOURS       DAYS        YEARS
                    -----------------------------------------------------------
   TIME STEP LENGTH  86400.      1440.0      24.000      1.0000     2.73785E-03
 STRESS PERIOD TIME 4.32000E+05  7200.0      120.00      5.0000     1.36893E-02
         TOTAL TIME 9.15840E+06 1.52640E+05  2544.0      106.00     0.29021    
1

 SOLVING FOR HEAD 

    ------------------------------------------------
       NWT REQUIRED            4 OUTER ITERATIONS 
       AND A TOTAL OF          5 INNER ITERATIONS.
    ------------------------------------------------

 OUTPUT CONTROL FOR STRESS PERIOD    3   TIME STEP    6
    SAVE HEAD FOR ALL LAYERS
    SAVE DRAWDOWN FOR ALL LAYERS
    SAVE BUDGET
    PRINT HEAD FOR ALL LAYERS
    PRINT BUDGET
1
              HEAD IN LAYER   1 AT END OF TIME STEP   6 IN STRESS PERIOD    3
  ---------------------------------------------------------------------------

            1           2           3           4           5           6           7           8           9          10
           11          12          13          14          15          16          17          18          19          20
 ........................................................................................................................
   1    0.000       0.000       0.000       0.000       0.000       7.319       7.314       7.337       7.353       7.366    
        7.384       7.471       7.818       7.516       7.808       7.449       7.373       7.370       0.000       0.000    
   2    0.000       0.000       0.000       0.000       7.371       7.402       7.384       7.433       7.429       7.435    
        7.448       7.511       7.785       7.516       7.747       7.418       7.365       7.369       0.000       0.000    
   3    0.000       0.000       0.000       7.449       7.517       7.696       7.763       7.748       7.703       7.694    
        7.696       7.718       7.810       7.542       7.660       7.346       7.354       7.370       0.000       0.000    
   4    0.000       0.000       7.662       7.700       7.853       7.574       7.564       7.550       7.523       7.544    
        7.579       7.799       8.031       7.498       7.650       7.402       7.373       7.383       0.000       0.000    
   5    0.000       0.000       8.082       8.019       7.531       7.755       7.915       7.779       7.723       7.736    
        7.851       7.650       7.475       7.780       7.624       7.419       7.390       7.401       7.418       0.000    
   6    0.000       7.543       7.460       7.598       8.034       7.800       7.574       7.494       7.469       7.472    
        7.525       7.670       7.694       7.664       7.473       7.401       7.395       7.406       7.419       0.000    
   7    0.000       7.723       7.721       7.711       7.653       7.516       7.440       7.414       7.402       7.394    
        7.399       7.439       7.454       7.446       7.405       7.390       7.390       7.397       0.000       0.000    
   8    0.000       7.487       7.485       7.483       7.464       7.434       7.417       7.407       7.393       7.374    
        7.353       7.374       7.389       7.392       7.385       7.378       7.374       7.381       0.000       0.000    
   9    0.000       0.000       7.433       7.434       7.432       7.427       7.421       7.411       7.393       7.361    
        7.290       7.352       7.375       7.382       7.376       7.359       7.338       7.360       7.378       7.390    
  10    0.000       0.000       7.431       7.432       7.432       7.431       7.426       7.416       7.397       7.370    
        7.341       7.359       7.375       7.379       7.367       7.333       7.253       7.335       7.372       7.388    

 HEAD WILL BE SAVED ON UNIT   51 AT END OF TIME STEP    6, STRESS PERIOD    3

 DRAWDOWN WILL BE SAVED ON UNIT   52 AT END OF TIME STEP    6, STRESS PERIOD    3
1
  VOLUMETRIC BUDGET FOR ENTIRE MODEL AT END OF TIME STEP    6, STRESS PERIOD   3
  ------------------------------------------------------------------------------

     CUMULATIVE VOLUMES      L**3       RATES FOR THIS TIME STEP      L**3/T
     ------------------                 ------------------------

           IN:                                      IN:
           ---                                      ---
             STORAGE =      591092.6250               STORAGE =       48195.8711
       CONSTANT HEAD =           0.0000         CONSTANT HEAD =           0.0000
               WELLS =           0.0000                 WELLS =           0.0000
       RIVER LEAKAGE =     1458095.5000         RIVER LEAKAGE =           0.0000
            RECHARGE =       58911.0391              RECHARGE =         343.4863

            TOTAL IN =     2108099.2500              TOTAL IN =       48539.3594

          OUT:                                     OUT:
          ----                                     ----
             STORAGE =     1509391.1250               STORAGE =        2102.6868
       CONSTANT HEAD =           0.0000         CONSTANT HEAD =           0.0000
               WELLS =       21389.7168                 WELLS =         223.5936
       RIVER LEAKAGE =      577477.0000         RIVER LEAKAGE =       46212.3438
            RECHARGE =           0.0000              RECHARGE =           0.0000

           TOTAL OUT =     2108258.0000             TOTAL OUT =       48538.6250

            IN - OUT =        -158.7500              IN - OUT =           0.7344

 PERCENT DISCREPANCY =          -0.01     PERCENT DISCREPANCY =           0.00






         TIME SUMMARY AT END OF TIME STEP    6 IN STRESS PERIOD    3
                    SECONDS     MINUTES      HOURS       DAYS        YEARS
                    -----------------------------------------------------------
   TIME STEP LENGTH  86400.      1440.0      24.000      1.0000     2.73785E-03
 STRESS PERIOD TIME 5.18400E+05  8640.0      144.00      6.0000     1.64271E-02
         TOTAL TIME 9.24480E+06 1.54080E+05  2568.0      107.00     0.29295    
1

 SOLVING FOR HEAD 

    ------------------------------------------------
       NWT REQUIRED            4 OUTER ITERATIONS 
       AND A TOTAL OF          5 INNER ITERATIONS.
    ------------------------------------------------

 OUTPUT CONTROL FOR STRESS PERIOD    3   TIME STEP    7
    SAVE HEAD FOR ALL LAYERS
    SAVE DRAWDOWN FOR ALL LAYERS
    SAVE BUDGET
    PRINT HEAD FOR ALL LAYERS
    PRINT BUDGET
1
              HEAD IN LAYER   1 AT END OF TIME STEP   7 IN STRESS PERIOD    3
  ---------------------------------------------------------------------------

            1           2           3           4           5           6           7           8           9          10
           11          12          13          14          15          16          17          18          19          20
 ........................................................................................................................
   1    0.000       0.000       0.000       0.000       0.000       7.320       7.314       7.338       7.354       7.366    
        7.385       7.473       7.813       7.477       7.803       7.450       7.374       7.370       0.000       0.000    
   2    0.000       0.000       0.000       0.000       7.372       7.403       7.385       7.434       7.430       7.436    
        7.449       7.513       7.782       7.476       7.743       7.419       7.365       7.369       0.000       0.000    
   3    0.000       0.000       0.000       7.451       7.519       7.693       7.757       7.744       7.700       7.692    
        7.694       7.717       7.810       7.497       7.658       7.347       7.354       7.370       0.000       0.000    
   4    0.000       0.000       7.665       7.701       7.846       7.528       7.520       7.505       7.481       7.500    
        7.532       7.744       8.022       7.460       7.648       7.403       7.373       7.383       0.000       0.000    
   5    0.000       0.000       8.063       7.978       7.490       7.700       7.908       7.776       7.721       7.734    
        7.846       7.597       7.442       7.725       7.623       7.419       7.390       7.401       7.418       0.000    
   6    0.000       7.498       7.430       7.549       8.003       7.798       7.576       7.495       7.470       7.473    
        7.527       7.667       7.691       7.662       7.474       7.401       7.395       7.406       7.419       0.000    
   7    0.000       7.721       7.718       7.709       7.654       7.518       7.441       7.415       7.402       7.394    
        7.400       7.440       7.454       7.446       7.405       7.390       7.390       7.397       0.000       0.000    
   8    0.000       7.488       7.487       7.484       7.465       7.435       7.417       7.407       7.393       7.374    
        7.353       7.375       7.389       7.393       7.386       7.378       7.374       7.381       0.000       0.000    
   9    0.000       0.000       7.433       7.434       7.432       7.427       7.421       7.411       7.393       7.361    
        7.290       7.352       7.375       7.382       7.376       7.359       7.338       7.360       7.378       7.390    
  10    0.000       0.000       7.431       7.432       7.432       7.431       7.426       7.416       7.397       7.370    
        7.341       7.359       7.375       7.379       7.367       7.333       7.253       7.335       7.372       7.388    

 HEAD WILL BE SAVED ON UNIT   51 AT END OF TIME STEP    7, STRESS PERIOD    3

 DRAWDOWN WILL BE SAVED ON UNIT   52 AT END OF TIME STEP    7, STRESS PERIOD    3
1
  VOLUMETRIC BUDGET FOR ENTIRE MODEL AT END OF TIME STEP    7, STRESS PERIOD   3
  ------------------------------------------------------------------------------

     CUMULATIVE VOLUMES      L**3       RATES FOR THIS TIME STEP      L**3/T
     ------------------                 ------------------------

           IN:                                      IN:
           ---                                      ---
             STORAGE =      629761.7500               STORAGE =       38669.1445
       CONSTANT HEAD =           0.0000         CONSTANT HEAD =           0.0000
               WELLS =           0.0000                 WELLS =           0.0000
       RIVER LEAKAGE =     1458095.5000         RIVER LEAKAGE =           0.0000
            RECHARGE =       59254.5234              RECHARGE =         343.4863

            TOTAL IN =     2147111.7500              TOTAL IN =       39012.6328

          OUT:                                     OUT:
          ----                                     ----
             STORAGE =     1511440.7500               STORAGE =        2049.5928
       CONSTANT HEAD =           0.0000         CONSTANT HEAD =           0.0000
               WELLS =       21613.3105                 WELLS =         223.5936
       RIVER LEAKAGE =      614215.8750         RIVER LEAKAGE =       36738.8672
            RECHARGE =           0.0000              RECHARGE =           0.0000

           TOTAL OUT =     2147270.0000             TOTAL OUT =       39012.0547

            IN - OUT =        -158.2500              IN - OUT =           0.5781

 PERCENT DISCREPANCY =          -0.01     PERCENT DISCREPANCY =           0.00






         TIME SUMMARY AT END OF TIME STEP    7 IN STRESS PERIOD    3
                    SECONDS     MINUTES      HOURS       DAYS        YEARS
                    -----------------------------------------------------------
   TIME STEP LENGTH  86400.      1440.0      24.000      1.0000     2.73785E-03
 STRESS PERIOD TIME 6.04800E+05  10080.      168.00      7.0000     1.91650E-02
         TOTAL TIME 9.33120E+06 1.55520E+05  2592.0      108.00     0.29569    
1

 SOLVING FOR HEAD 

    ------------------------------------------------
       NWT REQUIRED            4 OUTER ITERATIONS 
       AND A TOTAL OF          5 INNER ITERATIONS.
    ------------------------------------------------

 OUTPUT CONTROL FOR STRESS PERIOD    3   TIME STEP    8
    SAVE HEAD FOR ALL LAYERS
    SAVE DRAWDOWN FOR ALL LAYERS
    SAVE BUDGET
    PRINT HEAD FOR ALL LAYERS
    PRINT BUDGET
1
              HEAD IN LAYER   1 AT END OF TIME STEP   8 IN STRESS PERIOD    3
  ---------------------------------------------------------------------------

            1           2           3           4           5           6           7           8           9          10
           11          12          13          14          15          16          17          18          19          20
 ........................................................................................................................
   1    0.000       0.000       0.000       0.000       0.000       7.320       7.315       7.338       7.354       7.367    
        7.386       7.474       7.808       7.449       7.797       7.451       7.374       7.370       0.000       0.000    
   2    0.000       0.000       0.000       0.000       7.374       7.404       7.386       7.435       7.432       7.438    
        7.450       7.515       7.778       7.447       7.739       7.420       7.365       7.369       0.000       0.000    
   3    0.000       0.000       0.000       7.453       7.520       7.689       7.752       7.740       7.697       7.689    
        7.692       7.716       7.809       7.464       7.657       7.348       7.354       7.370       0.000       0.000    
   4    0.000       0.000       7.667       7.701       7.839       7.492       7.486       7.472       7.451       7.466    
        7.495       7.696       8.013       7.434       7.645       7.404       7.373       7.383       0.000       0.000    
   5    0.000       0.000       8.043       7.941       7.461       7.652       7.901       7.773       7.718       7.731    
        7.840       7.554       7.420       7.677       7.622       7.420       7.390       7.401       7.418       0.000    
   6    0.000       7.463       7.409       7.511       7.973       7.795       7.578       7.497       7.471       7.474    
        7.528       7.665       7.688       7.660       7.476       7.402       7.396       7.406       7.419       0.000    
   7    0.000       7.718       7.715       7.706       7.654       7.519       7.442       7.415       7.403       7.394    
        7.400       7.441       7.455       7.447       7.406       7.390       7.390       7.397       0.000       0.000    
   8    0.000       7.490       7.488       7.485       7.466       7.435       7.417       7.407       7.393       7.374    
        7.354       7.375       7.389       7.393       7.386       7.378       7.374       7.381       0.000       0.000    
   9    0.000       0.000       7.434       7.434       7.432       7.427       7.421       7.411       7.393       7.361    
        7.290       7.352       7.375       7.382       7.376       7.359       7.338       7.360       7.378       7.390    
  10    0.000       0.000       7.431       7.432       7.432       7.431       7.426       7.416       7.397       7.370    
        7.341       7.359       7.375       7.379       7.367       7.333       7.253       7.335       7.372       7.388    

 HEAD WILL BE SAVED ON UNIT   51 AT END OF TIME STEP    8, STRESS PERIOD    3

 DRAWDOWN WILL BE SAVED ON UNIT   52 AT END OF TIME STEP    8, STRESS PERIOD    3
1
  VOLUMETRIC BUDGET FOR ENTIRE MODEL AT END OF TIME STEP    8, STRESS PERIOD   3
  ------------------------------------------------------------------------------

     CUMULATIVE VOLUMES      L**3       RATES FOR THIS TIME STEP      L**3/T
     ------------------                 ------------------------

           IN:                                      IN:
           ---                                      ---
             STORAGE =      661212.3125               STORAGE =       31450.5547
       CONSTANT HEAD =           0.0000         CONSTANT HEAD =           0.0000
               WELLS =           0.0000                 WELLS =           0.0000
       RIVER LEAKAGE =     1458095.5000         RIVER LEAKAGE =           0.0000
            RECHARGE =       59598.0078              RECHARGE =         343.4863

            TOTAL IN =     2178905.7500              TOTAL IN =       31794.0410

          OUT:                                     OUT:
          ----                                     ----
             STORAGE =     1513437.2500               STORAGE =        1996.4891
       CONSTANT HEAD =           0.0000         CONSTANT HEAD =           0.0000
               WELLS =       21836.9043                 WELLS =         223.5936
       RIVER LEAKAGE =      643789.3750         RIVER LEAKAGE =       29573.5000
            RECHARGE =           0.0000              RECHARGE =           0.0000

           TOTAL OUT =     2179063.5000             TOTAL OUT =       31793.5820

            IN - OUT =        -157.7500              IN - OUT =           0.4590

 PERCENT DISCREPANCY =          -0.01     PERCENT DISCREPANCY =           0.00






         TIME SUMMARY AT END OF TIME STEP    8 IN STRESS PERIOD    3
                    SECONDS     MINUTES      HOURS       DAYS        YEARS
                    -----------------------------------------------------------
   TIME STEP LENGTH  86400.      1440.0      24.000      1.0000     2.73785E-03
 STRESS PERIOD TIME 6.91200E+05  11520.      192.00      8.0000     2.19028E-02
         TOTAL TIME 9.41760E+06 1.56960E+05  2616.0      109.00     0.29843    
1

 SOLVING FOR HEAD 

    ------------------------------------------------
       NWT REQUIRED            4 OUTER ITERATIONS 
       AND A TOTAL OF          5 INNER ITERATIONS.
    ------------------------------------------------

 OUTPUT CONTROL FOR STRESS PERIOD    3   TIME STEP    9
    SAVE HEAD FOR ALL LAYERS
    SAVE DRAWDOWN FOR ALL LAYERS
    SAVE BUDGET
    PRINT HEAD FOR ALL LAYERS
    PRINT BUDGET
1
              HEAD IN LAYER   1 AT END OF TIME STEP   9 IN STRESS PERIOD    3
  ---------------------------------------------------------------------------

            1           2           3           4           5           6           7           8           9          10
           11          12          13          14          15          16          17          18          19          20
 ........................................................................................................................
   1    0.000       0.000       0.000       0.000       0.000       7.321       7.315       7.339       7.355       7.367    
        7.387       7.476       7.803       7.428       7.792       7.453       7.374       7.371       0.000       0.000    
   2    0.000       0.000       0.000       0.000       7.375       7.405       7.387       7.437       7.433       7.439    
        7.452       7.517       7.775       7.426       7.735       7.421       7.366       7.369       0.000       0.000    
   3    0.000       0.000       0.000       7.455       7.522       7.685       7.746       7.735       7.694       7.687    
        7.689       7.715       7.807       7.439       7.654       7.348       7.355       7.370       0.000       0.000    
   4    0.000       0.000       7.670       7.702       7.832       7.464       7.460       7.447       7.428       7.441    
        7.467       7.655       8.004       7.415       7.643       7.405       7.373       7.383       0.000       0.000    
   5    0.000       0.000       8.025       7.905       7.438       7.612       7.894       7.769       7.716       7.728    
        7.834       7.520       7.404       7.635       7.620       7.421       7.390       7.401       7.418       0.000    
   6    0.000       7.438       7.395       7.482       7.944       7.792       7.580       7.498       7.473       7.476    
        7.530       7.662       7.685       7.658       7.477       7.402       7.396       7.406       7.419       0.000    
   7    0.000       7.715       7.712       7.703       7.654       7.521       7.443       7.416       7.403       7.395    
        7.401       7.441       7.456       7.448       7.406       7.390       7.390       7.397       0.000       0.000    
   8    0.000       7.491       7.489       7.486       7.467       7.436       7.418       7.407       7.393       7.374    
        7.354       7.375       7.390       7.393       7.386       7.378       7.374       7.381       0.000       0.000    
   9    0.000       0.000       7.434       7.435       7.432       7.427       7.421       7.411       7.393       7.361    
        7.290       7.352       7.375       7.382       7.376       7.359       7.337       7.360       7.378       7.390    
  10    0.000       0.000       7.431       7.432       7.432       7.431       7.426       7.416       7.397       7.370    
        7.341       7.359       7.375       7.379       7.367       7.333       7.253       7.335       7.372       7.388    

 HEAD WILL BE SAVED ON UNIT   51 AT END OF TIME STEP    9, STRESS PERIOD    3

 DRAWDOWN WILL BE SAVED ON UNIT   52 AT END OF TIME STEP    9, STRESS PERIOD    3
1
  VOLUMETRIC BUDGET FOR ENTIRE MODEL AT END OF TIME STEP    9, STRESS PERIOD   3
  ------------------------------------------------------------------------------

     CUMULATIVE VOLUMES      L**3       RATES FOR THIS TIME STEP      L**3/T
     ------------------                 ------------------------

           IN:                                      IN:
           ---                                      ---
             STORAGE =      687159.6250               STORAGE =       25947.3242
       CONSTANT HEAD =           0.0000         CONSTANT HEAD =           0.0000
               WELLS =           0.0000                 WELLS =           0.0000
       RIVER LEAKAGE =     1458095.5000         RIVER LEAKAGE =           0.0000
            RECHARGE =       59941.4922              RECHARGE =         343.4863

            TOTAL IN =     2205196.5000              TOTAL IN =       26290.8105

          OUT:                                     OUT:
          ----                                     ----
             STORAGE =     1515381.0000               STORAGE =        1943.7721
       CONSTANT HEAD =           0.0000         CONSTANT HEAD =           0.0000
               WELLS =       22060.4980                 WELLS =         223.5936
       RIVER LEAKAGE =      667912.4375         RIVER LEAKAGE =       24123.0781
            RECHARGE =           0.0000              RECHARGE =           0.0000

           TOTAL OUT =     2205354.0000             TOTAL OUT =       26290.4434

            IN - OUT =        -157.5000              IN - OUT =           0.3672

 PERCENT DISCREPANCY =          -0.01     PERCENT DISCREPANCY =           0.00






         TIME SUMMARY AT END OF TIME STEP    9 IN STRESS PERIOD    3
                    SECONDS     MINUTES      HOURS       DAYS        YEARS
                    -----------------------------------------------------------
   TIME STEP LENGTH  86400.      1440.0      24.000      1.0000     2.73785E-03
 STRESS PERIOD TIME 7.77600E+05  12960.      216.00      9.0000     2.46407E-02
         TOTAL TIME 9.50400E+06 1.58400E+05  2640.0      110.00     0.30116    
1

 SOLVING FOR HEAD 

    ------------------------------------------------
       NWT REQUIRED            4 OUTER ITERATIONS 
       AND A TOTAL OF          4 INNER ITERATIONS.
    ------------------------------------------------

 OUTPUT CONTROL FOR STRESS PERIOD    3   TIME STEP   10
    SAVE HEAD FOR ALL LAYERS
    SAVE DRAWDOWN FOR ALL LAYERS
    SAVE BUDGET
    PRINT HEAD FOR ALL LAYERS
    PRINT BUDGET
1
              HEAD IN LAYER   1 AT END OF TIME STEP  10 IN STRESS PERIOD    3
  ---------------------------------------------------------------------------

            1           2           3           4           5           6           7           8           9          10
           11          12          13          14          15          16          17          18          19          20
 ........................................................................................................................
   1    0.000       0.000       0.000       0.000       0.000       7.321       7.316       7.339       7.355       7.368    
        7.387       7.477       7.798       7.413       7.787       7.454       7.375       7.371       0.000       0.000    
   2    0.000       0.000       0.000       0.000       7.376       7.406       7.388       7.438       7.434       7.440    
        7.453       7.519       7.772       7.410       7.731       7.422       7.366       7.369       0.000       0.000    
   3    0.000       0.000       0.000       7.457       7.523       7.681       7.739       7.730       7.692       7.684    
        7.687       7.714       7.806       7.420       7.652       7.349       7.355       7.370       0.000       0.000    
   4    0.000       0.000       7.672       7.702       7.826       7.443       7.440       7.428       7.411       7.423    
        7.445       7.619       7.995       7.401       7.641       7.406       7.374       7.383       0.000       0.000    
   5    0.000       0.000       8.006       7.872       7.422       7.577       7.886       7.766       7.713       7.726    
        7.828       7.492       7.393       7.600       7.618       7.421       7.390       7.401       7.418       0.000    
   6    0.000       7.418       7.386       7.459       7.917       7.789       7.581       7.499       7.474       7.477    
        7.531       7.660       7.681       7.656       7.478       7.403       7.396       7.406       7.419       0.000    
   7    0.000       7.712       7.709       7.700       7.654       7.522       7.444       7.416       7.404       7.395    
        7.402       7.442       7.457       7.449       7.407       7.390       7.390       7.397       0.000       0.000    
   8    0.000       7.492       7.490       7.487       7.468       7.436       7.418       7.407       7.394       7.374    
        7.354       7.375       7.390       7.393       7.386       7.378       7.374       7.381       0.000       0.000    
   9    0.000       0.000       7.434       7.435       7.433       7.427       7.421       7.412       7.393       7.361    
        7.289       7.352       7.375       7.382       7.376       7.359       7.337       7.360       7.378       7.390    
  10    0.000       0.000       7.431       7.432       7.433       7.431       7.426       7.416       7.397       7.370    
        7.341       7.359       7.375       7.379       7.367       7.333       7.253       7.335       7.372       7.388    

 HEAD WILL BE SAVED ON UNIT   51 AT END OF TIME STEP   10, STRESS PERIOD    3

 DRAWDOWN WILL BE SAVED ON UNIT   52 AT END OF TIME STEP   10, STRESS PERIOD    3
1
  VOLUMETRIC BUDGET FOR ENTIRE MODEL AT END OF TIME STEP   10, STRESS PERIOD   3
  ------------------------------------------------------------------------------

     CUMULATIVE VOLUMES      L**3       RATES FOR THIS TIME STEP      L**3/T
     ------------------                 ------------------------

           IN:                                      IN:
           ---                                      ---
             STORAGE =      708883.6250               STORAGE =       21723.9707
       CONSTANT HEAD =           0.0000         CONSTANT HEAD =           0.0000
               WELLS =           0.0000                 WELLS =           0.0000
       RIVER LEAKAGE =     1458095.5000         RIVER LEAKAGE =           0.0000
            RECHARGE =       60284.9766              RECHARGE =         343.4863

            TOTAL IN =     2227264.0000              TOTAL IN =       22067.4570

          OUT:                                     OUT:
          ----                                     ----
             STORAGE =     1517272.7500               STORAGE =        1891.7142
       CONSTANT HEAD =           0.0000         CONSTANT HEAD =           0.0000
               WELLS =       22284.0918                 WELLS =         223.5936
       RIVER LEAKAGE =      687864.3125         RIVER LEAKAGE =       19951.8477
            RECHARGE =           0.0000              RECHARGE =           0.0000

           TOTAL OUT =     2227421.2500             TOTAL OUT =       22067.1562

            IN - OUT =        -157.2500              IN - OUT =           0.3008

 PERCENT DISCREPANCY =          -0.01     PERCENT DISCREPANCY =           0.00






         TIME SUMMARY AT END OF TIME STEP   10 IN STRESS PERIOD    3
                    SECONDS     MINUTES      HOURS       DAYS        YEARS
                    -----------------------------------------------------------
   TIME STEP LENGTH  86400.      1440.0      24.000      1.0000     2.73785E-03
 STRESS PERIOD TIME 8.64000E+05  14400.      240.00      10.000     2.73785E-02
         TOTAL TIME 9.59040E+06 1.59840E+05  2664.0      111.00     0.30390    
1

 SOLVING FOR HEAD 

    ------------------------------------------------
       NWT REQUIRED            4 OUTER ITERATIONS 
       AND A TOTAL OF          4 INNER ITERATIONS.
    ------------------------------------------------

 OUTPUT CONTROL FOR STRESS PERIOD    3   TIME STEP   11
    SAVE HEAD FOR ALL LAYERS
    SAVE DRAWDOWN FOR ALL LAYERS
    SAVE BUDGET
    PRINT HEAD FOR ALL LAYERS
    PRINT BUDGET
1
              HEAD IN LAYER   1 AT END OF TIME STEP  11 IN STRESS PERIOD    3
  ---------------------------------------------------------------------------

            1           2           3           4           5           6           7           8           9          10
           11          12          13          14          15          16          17          18          19          20
 ........................................................................................................................
   1    0.000       0.000       0.000       0.000       0.000       7.322       7.317       7.340       7.356       7.368    
        7.388       7.478       7.793       7.403       7.782       7.455       7.375       7.371       0.000       0.000    
   2    0.000       0.000       0.000       0.000       7.377       7.408       7.389       7.439       7.435       7.441    
        7.454       7.521       7.768       7.399       7.727       7.423       7.366       7.369       0.000       0.000    
   3    0.000       0.000       0.000       7.458       7.525       7.678       7.733       7.726       7.689       7.681    
        7.684       7.713       7.804       7.406       7.650       7.350       7.355       7.370       0.000       0.000    
   4    0.000       0.000       7.674       7.702       7.819       7.426       7.426       7.414       7.399       7.408    
        7.428       7.588       7.986       7.391       7.638       7.407       7.374       7.383       0.000       0.000    
   5    0.000       0.000       7.989       7.840       7.410       7.548       7.878       7.762       7.710       7.723    
        7.822       7.469       7.385       7.569       7.617       7.422       7.391       7.401       7.418       0.000    
   6    0.000       7.404       7.379       7.441       7.890       7.786       7.583       7.501       7.475       7.478    
        7.532       7.657       7.678       7.654       7.478       7.403       7.396       7.406       7.419       0.000    
   7    0.000       7.709       7.705       7.698       7.654       7.523       7.445       7.417       7.404       7.396    
        7.402       7.443       7.458       7.450       7.407       7.390       7.390       7.397       0.000       0.000    
   8    0.000       7.494       7.491       7.488       7.469       7.437       7.418       7.407       7.394       7.374    
        7.354       7.376       7.390       7.394       7.386       7.378       7.374       7.381       0.000       0.000    
   9    0.000       0.000       7.435       7.435       7.433       7.427       7.421       7.412       7.393       7.361    
        7.289       7.352       7.375       7.382       7.376       7.359       7.337       7.360       7.378       7.390    
  10    0.000       0.000       7.431       7.432       7.433       7.431       7.426       7.416       7.397       7.370    
        7.341       7.359       7.375       7.379       7.367       7.333       7.252       7.335       7.372       7.388    

 HEAD WILL BE SAVED ON UNIT   51 AT END OF TIME STEP   11, STRESS PERIOD    3

 DRAWDOWN WILL BE SAVED ON UNIT   52 AT END OF TIME STEP   11, STRESS PERIOD    3
1
  VOLUMETRIC BUDGET FOR ENTIRE MODEL AT END OF TIME STEP   11, STRESS PERIOD   3
  ------------------------------------------------------------------------------

     CUMULATIVE VOLUMES      L**3       RATES FOR THIS TIME STEP      L**3/T
     ------------------                 ------------------------

           IN:                                      IN:
           ---                                      ---
             STORAGE =      727350.3125               STORAGE =       18466.6875
       CONSTANT HEAD =           0.0000         CONSTANT HEAD =           0.0000
               WELLS =           0.0000                 WELLS =           0.0000
       RIVER LEAKAGE =     1458095.5000         RIVER LEAKAGE =           0.0000
            RECHARGE =       60628.4609              RECHARGE =         343.4863

            TOTAL IN =     2246074.2500              TOTAL IN =       18810.1738

          OUT:                                     OUT:
          ----                                     ----
             STORAGE =     1519120.3750               STORAGE =        1847.6383
       CONSTANT HEAD =           0.0000         CONSTANT HEAD =           0.0000
               WELLS =       22507.6855                 WELLS =         223.5936
       RIVER LEAKAGE =      704603.0000         RIVER LEAKAGE =       16738.6934
            RECHARGE =           0.0000              RECHARGE =           0.0000

           TOTAL OUT =     2246231.0000             TOTAL OUT =       18809.9258

            IN - OUT =        -156.7500              IN - OUT =           0.2480

 PERCENT DISCREPANCY =          -0.01     PERCENT DISCREPANCY =           0.00






         TIME SUMMARY AT END OF TIME STEP   11 IN STRESS PERIOD    3
                    SECONDS     MINUTES      HOURS       DAYS        YEARS
                    -----------------------------------------------------------
   TIME STEP LENGTH  86400.      1440.0      24.000      1.0000     2.73785E-03
 STRESS PERIOD TIME 9.50400E+05  15840.      264.00      11.000     3.01164E-02
         TOTAL TIME 9.67680E+06 1.61280E+05  2688.0      112.00     0.30664    
1

 SOLVING FOR HEAD 

    ------------------------------------------------
       NWT REQUIRED            4 OUTER ITERATIONS 
       AND A TOTAL OF          4 INNER ITERATIONS.
    ------------------------------------------------

 OUTPUT CONTROL FOR STRESS PERIOD    3   TIME STEP   12
    SAVE HEAD FOR ALL LAYERS
    SAVE DRAWDOWN FOR ALL LAYERS
    SAVE BUDGET
    PRINT HEAD FOR ALL LAYERS
    PRINT BUDGET
1
              HEAD IN LAYER   1 AT END OF TIME STEP  12 IN STRESS PERIOD    3
  ---------------------------------------------------------------------------

            1           2           3           4           5           6           7           8           9          10
           11          12          13          14          15          16          17          18          19          20
 ........................................................................................................................
   1    0.000       0.000       0.000       0.000       0.000       7.323       7.317       7.341       7.356       7.369    
        7.389       7.480       7.787       7.395       7.776       7.456       7.375       7.371       0.000       0.000    
   2    0.000       0.000       0.000       0.000       7.378       7.409       7.390       7.440       7.436       7.442    
        7.456       7.523       7.765       7.391       7.724       7.424       7.367       7.369       0.000       0.000    
   3    0.000       0.000       0.000       7.460       7.526       7.674       7.727       7.721       7.686       7.678    
        7.681       7.711       7.803       7.396       7.648       7.351       7.355       7.370       0.000       0.000    
   4    0.000       0.000       7.676       7.701       7.812       7.414       7.414       7.404       7.390       7.398    
        7.415       7.560       7.976       7.384       7.636       7.407       7.374       7.383       0.000       0.000    
   5    0.000       0.000       7.971       7.811       7.401       7.523       7.871       7.759       7.707       7.720    
        7.816       7.451       7.380       7.542       7.615       7.423       7.391       7.401       7.418       0.000    
   6    0.000       7.393       7.375       7.427       7.866       7.782       7.584       7.502       7.476       7.479    
        7.534       7.654       7.675       7.651       7.479       7.403       7.396       7.406       7.419       0.000    
   7    0.000       7.706       7.702       7.695       7.654       7.525       7.446       7.418       7.405       7.396    
        7.403       7.444       7.459       7.450       7.408       7.390       7.390       7.397       0.000       0.000    
   8    0.000       7.495       7.492       7.489       7.470       7.437       7.419       7.407       7.394       7.374    
        7.354       7.376       7.391       7.394       7.386       7.378       7.374       7.381       0.000       0.000    
   9    0.000       0.000       7.435       7.436       7.433       7.427       7.421       7.412       7.393       7.361    
        7.289       7.352       7.375       7.382       7.376       7.359       7.337       7.360       7.378       7.390    
  10    0.000       0.000       7.431       7.432       7.433       7.431       7.426       7.416       7.397       7.370    
        7.341       7.359       7.375       7.379       7.367       7.333       7.252       7.335       7.372       7.388    

 HEAD WILL BE SAVED ON UNIT   51 AT END OF TIME STEP   12, STRESS PERIOD    3

 DRAWDOWN WILL BE SAVED ON UNIT   52 AT END OF TIME STEP   12, STRESS PERIOD    3
1
  VOLUMETRIC BUDGET FOR ENTIRE MODEL AT END OF TIME STEP   12, STRESS PERIOD   3
  ------------------------------------------------------------------------------

     CUMULATIVE VOLUMES      L**3       RATES FOR THIS TIME STEP      L**3/T
     ------------------                 ------------------------

           IN:                                      IN:
           ---                                      ---
             STORAGE =      743286.4375               STORAGE =       15936.1357
       CONSTANT HEAD =           0.0000         CONSTANT HEAD =           0.0000
               WELLS =           0.0000                 WELLS =           0.0000
       RIVER LEAKAGE =     1458095.5000         RIVER LEAKAGE =           0.0000
            RECHARGE =       60971.9453              RECHARGE =         343.4863

            TOTAL IN =     2262354.0000              TOTAL IN =       16279.6221

          OUT:                                     OUT:
          ----                                     ----
             STORAGE =     1520930.0000               STORAGE =        1809.6185
       CONSTANT HEAD =           0.0000         CONSTANT HEAD =           0.0000
               WELLS =       22731.2793                 WELLS =         223.5936
       RIVER LEAKAGE =      718849.1875         RIVER LEAKAGE =       14246.2021
            RECHARGE =           0.0000              RECHARGE =           0.0000

           TOTAL OUT =     2262510.5000             TOTAL OUT =       16279.4141

            IN - OUT =        -156.5000              IN - OUT =           0.2080

 PERCENT DISCREPANCY =          -0.01     PERCENT DISCREPANCY =           0.00






         TIME SUMMARY AT END OF TIME STEP   12 IN STRESS PERIOD    3
                    SECONDS     MINUTES      HOURS       DAYS        YEARS
                    -----------------------------------------------------------
   TIME STEP LENGTH  86400.      1440.0      24.000      1.0000     2.73785E-03
 STRESS PERIOD TIME 1.03680E+06  17280.      288.00      12.000     3.28542E-02
         TOTAL TIME 9.76320E+06 1.62720E+05  2712.0      113.00     0.30938    
1

 SOLVING FOR HEAD 

    ------------------------------------------------
       NWT REQUIRED            4 OUTER ITERATIONS 
       AND A TOTAL OF          4 INNER ITERATIONS.
    ------------------------------------------------

 OUTPUT CONTROL FOR STRESS PERIOD    3   TIME STEP   13
    SAVE HEAD FOR ALL LAYERS
    SAVE DRAWDOWN FOR ALL LAYERS
    SAVE BUDGET
    PRINT HEAD FOR ALL LAYERS
    PRINT BUDGET
1
              HEAD IN LAYER   1 AT END OF TIME STEP  13 IN STRESS PERIOD    3
  ---------------------------------------------------------------------------

            1           2           3           4           5           6           7           8           9          10
           11          12          13          14          15          16          17          18          19          20
 ........................................................................................................................
   1    0.000       0.000       0.000       0.000       0.000       7.323       7.318       7.341       7.357       7.369    
        7.390       7.481       7.782       7.389       7.771       7.457       7.376       7.371       0.000       0.000    
   2    0.000       0.000       0.000       0.000       7.379       7.409       7.391       7.441       7.437       7.443    
        7.457       7.524       7.761       7.385       7.720       7.425       7.367       7.369       0.000       0.000    
   3    0.000       0.000       0.000       7.462       7.527       7.670       7.721       7.717       7.683       7.675    
        7.679       7.709       7.801       7.388       7.646       7.352       7.356       7.370       0.000       0.000    
   4    0.000       0.000       7.678       7.701       7.805       7.404       7.406       7.396       7.383       7.390    
        7.405       7.537       7.967       7.379       7.634       7.408       7.374       7.383       0.000       0.000    
   5    0.000       0.000       7.954       7.784       7.394       7.502       7.863       7.755       7.704       7.717    
        7.810       7.436       7.376       7.519       7.613       7.423       7.391       7.401       7.418       0.000    
   6    0.000       7.385       7.372       7.415       7.842       7.778       7.586       7.503       7.477       7.480    
        7.535       7.651       7.672       7.649       7.480       7.404       7.396       7.406       7.419       0.000    
   7    0.000       7.703       7.699       7.692       7.654       7.526       7.447       7.418       7.405       7.397    
        7.404       7.445       7.460       7.451       7.408       7.391       7.390       7.397       0.000       0.000    
   8    0.000       7.496       7.493       7.489       7.470       7.438       7.419       7.407       7.394       7.374    
        7.354       7.376       7.391       7.394       7.386       7.378       7.374       7.381       0.000       0.000    
   9    0.000       0.000       7.435       7.436       7.433       7.428       7.421       7.412       7.393       7.361    
        7.289       7.352       7.376       7.382       7.376       7.359       7.337       7.360       7.378       7.390    
  10    0.000       0.000       7.431       7.432       7.433       7.431       7.426       7.416       7.397       7.370    
        7.341       7.359       7.375       7.379       7.367       7.333       7.252       7.335       7.372       7.388    

 HEAD WILL BE SAVED ON UNIT   51 AT END OF TIME STEP   13, STRESS PERIOD    3

 DRAWDOWN WILL BE SAVED ON UNIT   52 AT END OF TIME STEP   13, STRESS PERIOD    3
1
  VOLUMETRIC BUDGET FOR ENTIRE MODEL AT END OF TIME STEP   13, STRESS PERIOD   3
  ------------------------------------------------------------------------------

     CUMULATIVE VOLUMES      L**3       RATES FOR THIS TIME STEP      L**3/T
     ------------------                 ------------------------

           IN:                                      IN:
           ---                                      ---
             STORAGE =      757236.7500               STORAGE =       13950.3213
       CONSTANT HEAD =           0.0000         CONSTANT HEAD =           0.0000
               WELLS =           0.0000                 WELLS =           0.0000
       RIVER LEAKAGE =     1458095.5000         RIVER LEAKAGE =           0.0000
            RECHARGE =       61315.4297              RECHARGE =         343.4863

            TOTAL IN =     2276647.7500              TOTAL IN =       14293.8076

          OUT:                                     OUT:
          ----                                     ----
             STORAGE =     1522701.7500               STORAGE =        1771.7782
       CONSTANT HEAD =           0.0000         CONSTANT HEAD =           0.0000
               WELLS =       22954.8730                 WELLS =         223.5936
       RIVER LEAKAGE =      731147.4375         RIVER LEAKAGE =       12298.2588
            RECHARGE =           0.0000              RECHARGE =           0.0000

           TOTAL OUT =     2276804.0000             TOTAL OUT =       14293.6309

            IN - OUT =        -156.2500              IN - OUT =           0.1768

 PERCENT DISCREPANCY =          -0.01     PERCENT DISCREPANCY =           0.00






         TIME SUMMARY AT END OF TIME STEP   13 IN STRESS PERIOD    3
                    SECONDS     MINUTES      HOURS       DAYS        YEARS
                    -----------------------------------------------------------
   TIME STEP LENGTH  86400.      1440.0      24.000      1.0000     2.73785E-03
 STRESS PERIOD TIME 1.12320E+06  18720.      312.00      13.000     3.55921E-02
         TOTAL TIME 9.84960E+06 1.64160E+05  2736.0      114.00     0.31211    
1

 SOLVING FOR HEAD 

    ------------------------------------------------
       NWT REQUIRED            4 OUTER ITERATIONS 
       AND A TOTAL OF          4 INNER ITERATIONS.
    ------------------------------------------------

 OUTPUT CONTROL FOR STRESS PERIOD    3   TIME STEP   14
    SAVE HEAD FOR ALL LAYERS
    SAVE DRAWDOWN FOR ALL LAYERS
    SAVE BUDGET
    PRINT HEAD FOR ALL LAYERS
    PRINT BUDGET
1
              HEAD IN LAYER   1 AT END OF TIME STEP  14 IN STRESS PERIOD    3
  ---------------------------------------------------------------------------

            1           2           3           4           5           6           7           8           9          10
           11          12          13          14          15          16          17          18          19          20
 ........................................................................................................................
   1    0.000       0.000       0.000       0.000       0.000       7.324       7.319       7.342       7.357       7.370    
        7.391       7.482       7.777       7.385       7.766       7.458       7.376       7.371       0.000       0.000    
   2    0.000       0.000       0.000       0.000       7.380       7.410       7.392       7.442       7.438       7.444    
        7.458       7.526       7.758       7.380       7.716       7.426       7.367       7.369       0.000       0.000    
   3    0.000       0.000       0.000       7.464       7.528       7.666       7.715       7.712       7.680       7.672    
        7.676       7.707       7.799       7.382       7.643       7.352       7.356       7.370       0.000       0.000    
   4    0.000       0.000       7.679       7.700       7.798       7.396       7.399       7.389       7.379       7.384    
        7.397       7.516       7.958       7.375       7.631       7.409       7.374       7.383       0.000       0.000    
   5    0.000       0.000       7.938       7.758       7.389       7.484       7.855       7.751       7.702       7.714    
        7.804       7.423       7.373       7.499       7.611       7.424       7.391       7.401       7.418       0.000    
   6    0.000       7.379       7.370       7.407       7.820       7.775       7.587       7.505       7.478       7.482    
        7.536       7.648       7.669       7.646       7.481       7.404       7.396       7.406       7.419       0.000    
   7    0.000       7.700       7.696       7.689       7.653       7.527       7.448       7.419       7.405       7.397    
        7.404       7.445       7.460       7.452       7.409       7.391       7.390       7.397       0.000       0.000    
   8    0.000       7.497       7.494       7.490       7.471       7.439       7.419       7.408       7.394       7.374    
        7.355       7.377       7.391       7.395       7.386       7.378       7.374       7.381       0.000       0.000    
   9    0.000       0.000       7.436       7.436       7.434       7.428       7.421       7.412       7.393       7.361    
        7.289       7.352       7.376       7.382       7.376       7.359       7.337       7.360       7.378       7.390    
  10    0.000       0.000       7.431       7.432       7.433       7.431       7.426       7.416       7.397       7.370    
        7.341       7.359       7.375       7.379       7.367       7.333       7.252       7.335       7.372       7.388    

 HEAD WILL BE SAVED ON UNIT   51 AT END OF TIME STEP   14, STRESS PERIOD    3

 DRAWDOWN WILL BE SAVED ON UNIT   52 AT END OF TIME STEP   14, STRESS PERIOD    3
1
  VOLUMETRIC BUDGET FOR ENTIRE MODEL AT END OF TIME STEP   14, STRESS PERIOD   3
  ------------------------------------------------------------------------------

     CUMULATIVE VOLUMES      L**3       RATES FOR THIS TIME STEP      L**3/T
     ------------------                 ------------------------

           IN:                                      IN:
           ---                                      ---
             STORAGE =      769614.9375               STORAGE =       12378.1914
       CONSTANT HEAD =           0.0000         CONSTANT HEAD =           0.0000
               WELLS =           0.0000                 WELLS =           0.0000
       RIVER LEAKAGE =     1458095.5000         RIVER LEAKAGE =           0.0000
            RECHARGE =       61658.9141              RECHARGE =         343.4863

            TOTAL IN =     2289369.5000              TOTAL IN =       12721.6777

          OUT:                                     OUT:
          ----                                     ----
             STORAGE =     1524436.0000               STORAGE =        1734.2297
       CONSTANT HEAD =           0.0000         CONSTANT HEAD =           0.0000
               WELLS =       23178.4668                 WELLS =         223.5936
       RIVER LEAKAGE =      741911.1250         RIVER LEAKAGE =       10763.7021
            RECHARGE =           0.0000              RECHARGE =           0.0000

           TOTAL OUT =     2289525.5000             TOTAL OUT =       12721.5254

            IN - OUT =        -156.0000              IN - OUT =           0.1523

 PERCENT DISCREPANCY =          -0.01     PERCENT DISCREPANCY =           0.00






         TIME SUMMARY AT END OF TIME STEP   14 IN STRESS PERIOD    3
                    SECONDS     MINUTES      HOURS       DAYS        YEARS
                    -----------------------------------------------------------
   TIME STEP LENGTH  86400.      1440.0      24.000      1.0000     2.73785E-03
 STRESS PERIOD TIME 1.20960E+06  20160.      336.00      14.000     3.83299E-02
         TOTAL TIME 9.93600E+06 1.65600E+05  2760.0      115.00     0.31485    
1

 SOLVING FOR HEAD 

    ------------------------------------------------
       NWT REQUIRED            4 OUTER ITERATIONS 
       AND A TOTAL OF          4 INNER ITERATIONS.
    ------------------------------------------------

 OUTPUT CONTROL FOR STRESS PERIOD    3   TIME STEP   15
    SAVE HEAD FOR ALL LAYERS
    SAVE DRAWDOWN FOR ALL LAYERS
    SAVE BUDGET
    PRINT HEAD FOR ALL LAYERS
    PRINT BUDGET
1
              HEAD IN LAYER   1 AT END OF TIME STEP  15 IN STRESS PERIOD    3
  ---------------------------------------------------------------------------

            1           2           3           4           5           6           7           8           9          10
           11          12          13          14          15          16          17          18          19          20
 ........................................................................................................................
   1    0.000       0.000       0.000       0.000       0.000       7.324       7.319       7.342       7.358       7.371    
        7.391       7.484       7.772       7.381       7.761       7.459       7.377       7.371       0.000       0.000    
   2    0.000       0.000       0.000       0.000       7.381       7.411       7.393       7.443       7.439       7.445    
        7.459       7.528       7.754       7.377       7.712       7.427       7.368       7.369       0.000       0.000    
   3    0.000       0.000       0.000       7.466       7.530       7.662       7.709       7.707       7.677       7.669    
        7.673       7.706       7.798       7.378       7.641       7.353       7.356       7.370       0.000       0.000    
   4    0.000       0.000       7.681       7.699       7.792       7.390       7.394       7.385       7.375       7.379    
        7.391       7.499       7.949       7.372       7.629       7.410       7.375       7.383       0.000       0.000    
   5    0.000       0.000       7.922       7.735       7.385       7.468       7.847       7.748       7.699       7.712    
        7.798       7.414       7.371       7.481       7.609       7.424       7.391       7.401       7.418       0.000    
   6    0.000       7.374       7.368       7.399       7.799       7.771       7.588       7.506       7.479       7.483    
        7.537       7.645       7.666       7.643       7.482       7.405       7.396       7.406       7.419       0.000    
   7    0.000       7.697       7.693       7.686       7.653       7.528       7.449       7.419       7.406       7.398    
        7.405       7.446       7.461       7.452       7.409       7.391       7.390       7.397       0.000       0.000    
   8    0.000       7.499       7.494       7.491       7.472       7.439       7.419       7.408       7.394       7.375    
        7.355       7.377       7.391       7.395       7.386       7.378       7.374       7.381       0.000       0.000    
   9    0.000       0.000       7.436       7.437       7.434       7.428       7.422       7.412       7.394       7.361    
        7.289       7.352       7.376       7.382       7.376       7.359       7.337       7.360       7.378       7.390    
  10    0.000       0.000       7.432       7.433       7.433       7.431       7.426       7.416       7.397       7.370    
        7.341       7.359       7.375       7.379       7.367       7.332       7.252       7.334       7.372       7.388    

 HEAD WILL BE SAVED ON UNIT   51 AT END OF TIME STEP   15, STRESS PERIOD    3

 DRAWDOWN WILL BE SAVED ON UNIT   52 AT END OF TIME STEP   15, STRESS PERIOD    3
1
  VOLUMETRIC BUDGET FOR ENTIRE MODEL AT END OF TIME STEP   15, STRESS PERIOD   3
  ------------------------------------------------------------------------------

     CUMULATIVE VOLUMES      L**3       RATES FOR THIS TIME STEP      L**3/T
     ------------------                 ------------------------

           IN:                                      IN:
           ---                                      ---
             STORAGE =      780736.7500               STORAGE =       11121.8359
       CONSTANT HEAD =           0.0000         CONSTANT HEAD =           0.0000
               WELLS =           0.0000                 WELLS =           0.0000
       RIVER LEAKAGE =     1458095.5000         RIVER LEAKAGE =           0.0000
            RECHARGE =       62002.3984              RECHARGE =         343.4863

            TOTAL IN =     2300834.7500              TOTAL IN =       11465.3223

          OUT:                                     OUT:
          ----                                     ----
             STORAGE =     1526133.0000               STORAGE =        1697.0472
       CONSTANT HEAD =           0.0000         CONSTANT HEAD =           0.0000
               WELLS =       23402.0605                 WELLS =         223.5936
       RIVER LEAKAGE =      751455.6875         RIVER LEAKAGE =        9544.5479
            RECHARGE =           0.0000              RECHARGE =           0.0000

           TOTAL OUT =     2300990.7500             TOTAL OUT =       11465.1885

            IN - OUT =        -156.0000              IN - OUT =           0.1338

 PERCENT DISCREPANCY =          -0.01     PERCENT DISCREPANCY =           0.00






         TIME SUMMARY AT END OF TIME STEP   15 IN STRESS PERIOD    3
                    SECONDS     MINUTES      HOURS       DAYS        YEARS
                    -----------------------------------------------------------
   TIME STEP LENGTH  86400.      1440.0      24.000      1.0000     2.73785E-03
 STRESS PERIOD TIME 1.29600E+06  21600.      360.00      15.000     4.10678E-02
         TOTAL TIME 1.00224E+07 1.67040E+05  2784.0      116.00     0.31759    
1

 SOLVING FOR HEAD 

    ------------------------------------------------
       NWT REQUIRED            4 OUTER ITERATIONS 
       AND A TOTAL OF          4 INNER ITERATIONS.
    ------------------------------------------------

 OUTPUT CONTROL FOR STRESS PERIOD    3   TIME STEP   16
    SAVE HEAD FOR ALL LAYERS
    SAVE DRAWDOWN FOR ALL LAYERS
    SAVE BUDGET
    PRINT HEAD FOR ALL LAYERS
    PRINT BUDGET
1
              HEAD IN LAYER   1 AT END OF TIME STEP  16 IN STRESS PERIOD    3
  ---------------------------------------------------------------------------

            1           2           3           4           5           6           7           8           9          10
           11          12          13          14          15          16          17          18          19          20
 ........................................................................................................................
   1    0.000       0.000       0.000       0.000       0.000       7.325       7.320       7.343       7.358       7.371    
        7.392       7.485       7.767       7.379       7.756       7.460       7.377       7.371       0.000       0.000    
   2    0.000       0.000       0.000       0.000       7.382       7.412       7.394       7.444       7.440       7.446    
        7.460       7.529       7.751       7.375       7.708       7.428       7.368       7.369       0.000       0.000    
   3    0.000       0.000       0.000       7.467       7.531       7.658       7.704       7.703       7.674       7.666    
        7.671       7.704       7.796       7.374       7.639       7.354       7.357       7.371       0.000       0.000    
   4    0.000       0.000       7.682       7.699       7.785       7.386       7.390       7.381       7.372       7.376    
        7.386       7.483       7.940       7.370       7.627       7.410       7.375       7.383       0.000       0.000    
   5    0.000       0.000       7.906       7.712       7.381       7.455       7.840       7.744       7.696       7.709    
        7.792       7.406       7.370       7.466       7.607       7.425       7.391       7.401       7.418       0.000    
   6    0.000       7.370       7.367       7.394       7.779       7.767       7.590       7.507       7.480       7.484    
        7.538       7.643       7.663       7.641       7.483       7.405       7.396       7.406       7.419       0.000    
   7    0.000       7.694       7.690       7.683       7.652       7.530       7.450       7.420       7.406       7.398    
        7.406       7.447       7.462       7.453       7.409       7.391       7.390       7.397       0.000       0.000    
   8    0.000       7.500       7.495       7.492       7.473       7.440       7.420       7.408       7.394       7.375    
        7.355       7.377       7.392       7.395       7.387       7.378       7.374       7.381       0.000       0.000    
   9    0.000       0.000       7.437       7.437       7.434       7.428       7.422       7.412       7.394       7.361    
        7.289       7.352       7.376       7.382       7.376       7.359       7.337       7.360       7.378       7.390    
  10    0.000       0.000       7.432       7.433       7.433       7.431       7.426       7.416       7.397       7.370    
        7.341       7.359       7.375       7.379       7.367       7.332       7.252       7.334       7.372       7.388    

 HEAD WILL BE SAVED ON UNIT   51 AT END OF TIME STEP   16, STRESS PERIOD    3

 DRAWDOWN WILL BE SAVED ON UNIT   52 AT END OF TIME STEP   16, STRESS PERIOD    3
1
  VOLUMETRIC BUDGET FOR ENTIRE MODEL AT END OF TIME STEP   16, STRESS PERIOD   3
  ------------------------------------------------------------------------------

     CUMULATIVE VOLUMES      L**3       RATES FOR THIS TIME STEP      L**3/T
     ------------------                 ------------------------

           IN:                                      IN:
           ---                                      ---
             STORAGE =      790844.5625               STORAGE =       10107.8340
       CONSTANT HEAD =           0.0000         CONSTANT HEAD =           0.0000
               WELLS =           0.0000                 WELLS =           0.0000
       RIVER LEAKAGE =     1458095.5000         RIVER LEAKAGE =           0.0000
            RECHARGE =       62345.8828              RECHARGE =         343.4863

            TOTAL IN =     2311286.0000              TOTAL IN =       10451.3203

          OUT:                                     OUT:
          ----                                     ----
             STORAGE =     1527793.2500               STORAGE =        1660.2947
       CONSTANT HEAD =           0.0000         CONSTANT HEAD =           0.0000
               WELLS =       23625.6543                 WELLS =         223.5936
       RIVER LEAKAGE =      760023.0000         RIVER LEAKAGE =        8567.3145
            RECHARGE =           0.0000              RECHARGE =           0.0000

           TOTAL OUT =     2311442.0000             TOTAL OUT =       10451.2031

            IN - OUT =        -156.0000              IN - OUT =           0.1172

 PERCENT DISCREPANCY =          -0.01     PERCENT DISCREPANCY =           0.00






         TIME SUMMARY AT END OF TIME STEP   16 IN STRESS PERIOD    3
                    SECONDS     MINUTES      HOURS       DAYS        YEARS
                    -----------------------------------------------------------
   TIME STEP LENGTH  86400.      1440.0      24.000      1.0000     2.73785E-03
 STRESS PERIOD TIME 1.38240E+06  23040.      384.00      16.000     4.38056E-02
         TOTAL TIME 1.01088E+07 1.68480E+05  2808.0      117.00     0.32033    
1

 SOLVING FOR HEAD 

    ------------------------------------------------
       NWT REQUIRED            3 OUTER ITERATIONS 
       AND A TOTAL OF          3 INNER ITERATIONS.
    ------------------------------------------------

 OUTPUT CONTROL FOR STRESS PERIOD    3   TIME STEP   17
    SAVE HEAD FOR ALL LAYERS
    SAVE DRAWDOWN FOR ALL LAYERS
    SAVE BUDGET
    PRINT HEAD FOR ALL LAYERS
    PRINT BUDGET
1
              HEAD IN LAYER   1 AT END OF TIME STEP  17 IN STRESS PERIOD    3
  ---------------------------------------------------------------------------

            1           2           3           4           5           6           7           8           9          10
           11          12          13          14          15          16          17          18          19          20
 ........................................................................................................................
   1    0.000       0.000       0.000       0.000       0.000       7.325       7.320       7.344       7.359       7.372    
        7.393       7.486       7.762       7.377       7.751       7.461       7.377       7.371       0.000       0.000    
   2    0.000       0.000       0.000       0.000       7.383       7.413       7.394       7.445       7.441       7.447    
        7.461       7.531       7.748       7.373       7.704       7.429       7.368       7.369       0.000       0.000    
   3    0.000       0.000       0.000       7.469       7.532       7.654       7.698       7.698       7.671       7.664    
        7.668       7.702       7.794       7.372       7.636       7.355       7.357       7.371       0.000       0.000    
   4    0.000       0.000       7.684       7.698       7.779       7.382       7.387       7.379       7.370       7.373    
        7.382       7.470       7.931       7.369       7.625       7.411       7.375       7.383       0.000       0.000    
   5    0.000       0.000       7.891       7.692       7.379       7.444       7.832       7.740       7.693       7.706    
        7.786       7.399       7.369       7.453       7.605       7.426       7.392       7.401       7.418       0.000    
   6    0.000       7.368       7.366       7.389       7.759       7.763       7.591       7.508       7.481       7.485    
        7.539       7.640       7.660       7.638       7.483       7.405       7.396       7.406       7.419       0.000    
   7    0.000       7.691       7.687       7.680       7.651       7.531       7.451       7.420       7.407       7.399    
        7.407       7.447       7.462       7.454       7.410       7.391       7.390       7.397       0.000       0.000    
   8    0.000       7.501       7.496       7.493       7.474       7.440       7.420       7.408       7.394       7.375    
        7.355       7.377       7.392       7.395       7.387       7.378       7.374       7.381       0.000       0.000    
   9    0.000       0.000       7.437       7.437       7.434       7.428       7.422       7.412       7.394       7.361    
        7.289       7.352       7.376       7.382       7.376       7.359       7.337       7.360       7.378       7.390    
  10    0.000       0.000       7.432       7.433       7.433       7.431       7.426       7.416       7.397       7.370    
        7.341       7.359       7.375       7.379       7.367       7.332       7.252       7.334       7.372       7.388    

 HEAD WILL BE SAVED ON UNIT   51 AT END OF TIME STEP   17, STRESS PERIOD    3

 DRAWDOWN WILL BE SAVED ON UNIT   52 AT END OF TIME STEP   17, STRESS PERIOD    3
1
  VOLUMETRIC BUDGET FOR ENTIRE MODEL AT END OF TIME STEP   17, STRESS PERIOD   3
  ------------------------------------------------------------------------------

     CUMULATIVE VOLUMES      L**3       RATES FOR THIS TIME STEP      L**3/T
     ------------------                 ------------------------

           IN:                                      IN:
           ---                                      ---
             STORAGE =      800127.6250               STORAGE =        9283.0840
       CONSTANT HEAD =           0.0000         CONSTANT HEAD =           0.0000
               WELLS =           0.0000                 WELLS =           0.0000
       RIVER LEAKAGE =     1458095.5000         RIVER LEAKAGE =           0.0000
            RECHARGE =       62689.3672              RECHARGE =         343.4863

            TOTAL IN =     2320912.2500              TOTAL IN =        9626.5703

          OUT:                                     OUT:
          ----                                     ----
             STORAGE =     1529417.6250               STORAGE =        1624.4055
       CONSTANT HEAD =           0.0000         CONSTANT HEAD =           0.0000
               WELLS =       23849.2480                 WELLS =         223.5936
       RIVER LEAKAGE =      767799.4375         RIVER LEAKAGE =        7776.4600
            RECHARGE =           0.0000              RECHARGE =           0.0000

           TOTAL OUT =     2321066.2500             TOTAL OUT =        9624.4590

            IN - OUT =        -154.0000              IN - OUT =           2.1113

 PERCENT DISCREPANCY =          -0.01     PERCENT DISCREPANCY =           0.02






         TIME SUMMARY AT END OF TIME STEP   17 IN STRESS PERIOD    3
                    SECONDS     MINUTES      HOURS       DAYS        YEARS
                    -----------------------------------------------------------
   TIME STEP LENGTH  86400.      1440.0      24.000      1.0000     2.73785E-03
 STRESS PERIOD TIME 1.46880E+06  24480.      408.00      17.000     4.65435E-02
         TOTAL TIME 1.01952E+07 1.69920E+05  2832.0      118.00     0.32307    
1

 SOLVING FOR HEAD 

    ------------------------------------------------
       NWT REQUIRED            3 OUTER ITERATIONS 
       AND A TOTAL OF          3 INNER ITERATIONS.
    ------------------------------------------------

 OUTPUT CONTROL FOR STRESS PERIOD    3   TIME STEP   18
    SAVE HEAD FOR ALL LAYERS
    SAVE DRAWDOWN FOR ALL LAYERS
    SAVE BUDGET
    PRINT HEAD FOR ALL LAYERS
    PRINT BUDGET
1
              HEAD IN LAYER   1 AT END OF TIME STEP  18 IN STRESS PERIOD    3
  ---------------------------------------------------------------------------

            1           2           3           4           5           6           7           8           9          10
           11          12          13          14          15          16          17          18          19          20
 ........................................................................................................................
   1    0.000       0.000       0.000       0.000       0.000       7.326       7.321       7.344       7.359       7.372    
        7.394       7.487       7.757       7.376       7.746       7.461       7.378       7.371       0.000       0.000    
   2    0.000       0.000       0.000       0.000       7.384       7.414       7.395       7.446       7.442       7.448    
        7.463       7.532       7.744       7.372       7.700       7.430       7.369       7.369       0.000       0.000    
   3    0.000       0.000       0.000       7.471       7.533       7.650       7.692       7.694       7.668       7.661    
        7.665       7.700       7.792       7.370       7.634       7.355       7.357       7.371       0.000       0.000    
   4    0.000       0.000       7.685       7.696       7.772       7.379       7.384       7.376       7.369       7.371    
        7.379       7.458       7.922       7.368       7.622       7.412       7.375       7.383       0.000       0.000    
   5    0.000       0.000       7.876       7.672       7.377       7.434       7.825       7.737       7.690       7.703    
        7.780       7.394       7.368       7.442       7.602       7.426       7.392       7.401       7.418       0.000    
   6    0.000       7.366       7.365       7.386       7.741       7.759       7.592       7.510       7.482       7.486    
        7.540       7.637       7.657       7.635       7.484       7.406       7.396       7.406       7.419       0.000    
   7    0.000       7.688       7.684       7.677       7.650       7.532       7.452       7.421       7.407       7.399    
        7.407       7.448       7.463       7.454       7.410       7.391       7.390       7.397       0.000       0.000    
   8    0.000       7.502       7.497       7.493       7.474       7.441       7.420       7.408       7.394       7.375    
        7.355       7.378       7.392       7.396       7.387       7.378       7.374       7.381       0.000       0.000    
   9    0.000       0.000       7.437       7.438       7.435       7.428       7.422       7.412       7.394       7.361    
        7.289       7.352       7.376       7.382       7.376       7.359       7.337       7.360       7.378       7.390    
  10    0.000       0.000       7.432       7.433       7.433       7.431       7.426       7.416       7.397       7.370    
        7.341       7.359       7.375       7.379       7.367       7.332       7.252       7.334       7.372       7.388    

 HEAD WILL BE SAVED ON UNIT   51 AT END OF TIME STEP   18, STRESS PERIOD    3

 DRAWDOWN WILL BE SAVED ON UNIT   52 AT END OF TIME STEP   18, STRESS PERIOD    3
1
  VOLUMETRIC BUDGET FOR ENTIRE MODEL AT END OF TIME STEP   18, STRESS PERIOD   3
  ------------------------------------------------------------------------------

     CUMULATIVE VOLUMES      L**3       RATES FOR THIS TIME STEP      L**3/T
     ------------------                 ------------------------

           IN:                                      IN:
           ---                                      ---
             STORAGE =      808728.6875               STORAGE =        8601.0781
       CONSTANT HEAD =           0.0000         CONSTANT HEAD =           0.0000
               WELLS =           0.0000                 WELLS =           0.0000
       RIVER LEAKAGE =     1458095.5000         RIVER LEAKAGE =           0.0000
            RECHARGE =       63032.8516              RECHARGE =         343.4863

            TOTAL IN =     2329857.0000              TOTAL IN =        8944.5645

          OUT:                                     OUT:
          ----                                     ----
             STORAGE =     1531006.2500               STORAGE =        1588.6279
       CONSTANT HEAD =           0.0000         CONSTANT HEAD =           0.0000
               WELLS =       24072.8418                 WELLS =         223.5936
       RIVER LEAKAGE =      774929.8750         RIVER LEAKAGE =        7130.4287
            RECHARGE =           0.0000              RECHARGE =           0.0000

           TOTAL OUT =     2330009.0000             TOTAL OUT =        8942.6504

            IN - OUT =        -152.0000              IN - OUT =           1.9141

 PERCENT DISCREPANCY =          -0.01     PERCENT DISCREPANCY =           0.02






         TIME SUMMARY AT END OF TIME STEP   18 IN STRESS PERIOD    3
                    SECONDS     MINUTES      HOURS       DAYS        YEARS
                    -----------------------------------------------------------
   TIME STEP LENGTH  86400.      1440.0      24.000      1.0000     2.73785E-03
 STRESS PERIOD TIME 1.55520E+06  25920.      432.00      18.000     4.92813E-02
         TOTAL TIME 1.02816E+07 1.71360E+05  2856.0      119.00     0.32580    
1

 SOLVING FOR HEAD 

    ------------------------------------------------
       NWT REQUIRED            3 OUTER ITERATIONS 
       AND A TOTAL OF          3 INNER ITERATIONS.
    ------------------------------------------------

 OUTPUT CONTROL FOR STRESS PERIOD    3   TIME STEP   19
    SAVE HEAD FOR ALL LAYERS
    SAVE DRAWDOWN FOR ALL LAYERS
    SAVE BUDGET
    PRINT HEAD FOR ALL LAYERS
    PRINT BUDGET
1
              HEAD IN LAYER   1 AT END OF TIME STEP  19 IN STRESS PERIOD    3
  ---------------------------------------------------------------------------

            1           2           3           4           5           6           7           8           9          10
           11          12          13          14          15          16          17          18          19          20
 ........................................................................................................................
   1    0.000       0.000       0.000       0.000       0.000       7.326       7.322       7.345       7.360       7.373    
        7.395       7.489       7.753       7.375       7.741       7.462       7.378       7.371       0.000       0.000    
   2    0.000       0.000       0.000       0.000       7.385       7.415       7.396       7.447       7.443       7.449    
        7.464       7.534       7.741       7.371       7.697       7.431       7.369       7.370       0.000       0.000    
   3    0.000       0.000       0.000       7.472       7.533       7.647       7.687       7.690       7.665       7.658    
        7.663       7.697       7.790       7.368       7.632       7.356       7.357       7.371       0.000       0.000    
   4    0.000       0.000       7.686       7.695       7.766       7.377       7.382       7.375       7.367       7.370    
        7.377       7.448       7.913       7.367       7.620       7.412       7.376       7.383       0.000       0.000    
   5    0.000       0.000       7.862       7.654       7.375       7.426       7.817       7.733       7.688       7.700    
        7.774       7.389       7.367       7.433       7.600       7.427       7.392       7.401       7.418       0.000    
   6    0.000       7.364       7.365       7.383       7.724       7.754       7.593       7.511       7.483       7.487    
        7.541       7.634       7.654       7.632       7.485       7.406       7.396       7.406       7.419       0.000    
   7    0.000       7.685       7.681       7.674       7.649       7.533       7.453       7.422       7.408       7.400    
        7.408       7.448       7.464       7.455       7.411       7.391       7.390       7.397       0.000       0.000    
   8    0.000       7.503       7.498       7.494       7.475       7.442       7.421       7.408       7.394       7.375    
        7.355       7.378       7.393       7.396       7.387       7.378       7.374       7.381       0.000       0.000    
   9    0.000       0.000       7.438       7.438       7.435       7.428       7.422       7.412       7.394       7.361    
        7.289       7.352       7.376       7.382       7.376       7.359       7.337       7.360       7.378       7.390    
  10    0.000       0.000       7.432       7.433       7.433       7.431       7.426       7.416       7.397       7.370    
        7.341       7.359       7.375       7.379       7.367       7.332       7.251       7.334       7.372       7.388    

 HEAD WILL BE SAVED ON UNIT   51 AT END OF TIME STEP   19, STRESS PERIOD    3

 DRAWDOWN WILL BE SAVED ON UNIT   52 AT END OF TIME STEP   19, STRESS PERIOD    3
1
  VOLUMETRIC BUDGET FOR ENTIRE MODEL AT END OF TIME STEP   19, STRESS PERIOD   3
  ------------------------------------------------------------------------------

     CUMULATIVE VOLUMES      L**3       RATES FOR THIS TIME STEP      L**3/T
     ------------------                 ------------------------

           IN:                                      IN:
           ---                                      ---
             STORAGE =      816761.3750               STORAGE =        8032.6812
       CONSTANT HEAD =           0.0000         CONSTANT HEAD =           0.0000
               WELLS =           0.0000                 WELLS =           0.0000
       RIVER LEAKAGE =     1458095.5000         RIVER LEAKAGE =           0.0000
            RECHARGE =       63376.3359              RECHARGE =         343.4863

            TOTAL IN =     2338233.2500              TOTAL IN =        8376.1680

          OUT:                                     OUT:
          ----                                     ----
             STORAGE =     1532559.6250               STORAGE =        1553.3909
       CONSTANT HEAD =           0.0000         CONSTANT HEAD =           0.0000
               WELLS =       24296.4355                 WELLS =         223.5936
       RIVER LEAKAGE =      781527.3125         RIVER LEAKAGE =        6597.4307
            RECHARGE =           0.0000              RECHARGE =           0.0000

           TOTAL OUT =     2338383.2500             TOTAL OUT =        8374.4150

            IN - OUT =        -150.0000              IN - OUT =           1.7529

 PERCENT DISCREPANCY =          -0.01     PERCENT DISCREPANCY =           0.02






         TIME SUMMARY AT END OF TIME STEP   19 IN STRESS PERIOD    3
                    SECONDS     MINUTES      HOURS       DAYS        YEARS
                    -----------------------------------------------------------
   TIME STEP LENGTH  86400.      1440.0      24.000      1.0000     2.73785E-03
 STRESS PERIOD TIME 1.64160E+06  27360.      456.00      19.000     5.20192E-02
         TOTAL TIME 1.03680E+07 1.72800E+05  2880.0      120.00     0.32854    
1

 SOLVING FOR HEAD 

    ------------------------------------------------
       NWT REQUIRED            3 OUTER ITERATIONS 
       AND A TOTAL OF          3 INNER ITERATIONS.
    ------------------------------------------------

 OUTPUT CONTROL FOR STRESS PERIOD    3   TIME STEP   20
    SAVE HEAD FOR ALL LAYERS
    SAVE DRAWDOWN FOR ALL LAYERS
    SAVE BUDGET
    PRINT HEAD FOR ALL LAYERS
    PRINT BUDGET
1
              HEAD IN LAYER   1 AT END OF TIME STEP  20 IN STRESS PERIOD    3
  ---------------------------------------------------------------------------

            1           2           3           4           5           6           7           8           9          10
           11          12          13          14          15          16          17          18          19          20
 ........................................................................................................................
   1    0.000       0.000       0.000       0.000       0.000       7.327       7.322       7.346       7.360       7.373    
        7.395       7.490       7.748       7.374       7.736       7.463       7.379       7.371       0.000       0.000    
   2    0.000       0.000       0.000       0.000       7.386       7.415       7.396       7.448       7.444       7.449    
        7.465       7.535       7.738       7.370       7.693       7.431       7.369       7.370       0.000       0.000    
   3    0.000       0.000       0.000       7.474       7.534       7.643       7.682       7.685       7.662       7.655    
        7.660       7.695       7.788       7.367       7.630       7.357       7.358       7.371       0.000       0.000    
   4    0.000       0.000       7.687       7.694       7.760       7.375       7.381       7.374       7.367       7.369    
        7.375       7.439       7.904       7.366       7.618       7.413       7.376       7.383       0.000       0.000    
   5    0.000       0.000       7.848       7.637       7.374       7.419       7.810       7.730       7.685       7.697    
        7.768       7.386       7.366       7.424       7.598       7.427       7.392       7.401       7.418       0.000    
   6    0.000       7.363       7.364       7.380       7.708       7.750       7.593       7.512       7.484       7.488    
        7.542       7.631       7.651       7.630       7.485       7.407       7.396       7.406       7.419       0.000    
   7    0.000       7.682       7.678       7.672       7.648       7.534       7.454       7.422       7.408       7.400    
        7.409       7.449       7.464       7.455       7.411       7.392       7.390       7.397       0.000       0.000    
   8    0.000       7.504       7.499       7.495       7.476       7.442       7.421       7.408       7.395       7.375    
        7.356       7.378       7.393       7.396       7.387       7.379       7.374       7.381       0.000       0.000    
   9    0.000       0.000       7.438       7.438       7.435       7.429       7.422       7.412       7.394       7.361    
        7.288       7.353       7.376       7.382       7.376       7.359       7.337       7.360       7.378       7.390    
  10    0.000       0.000       7.432       7.433       7.433       7.431       7.426       7.416       7.397       7.370    
        7.341       7.359       7.375       7.379       7.367       7.332       7.251       7.334       7.372       7.388    

 HEAD WILL BE SAVED ON UNIT   51 AT END OF TIME STEP   20, STRESS PERIOD    3

 DRAWDOWN WILL BE SAVED ON UNIT   52 AT END OF TIME STEP   20, STRESS PERIOD    3
1
  VOLUMETRIC BUDGET FOR ENTIRE MODEL AT END OF TIME STEP   20, STRESS PERIOD   3
  ------------------------------------------------------------------------------

     CUMULATIVE VOLUMES      L**3       RATES FOR THIS TIME STEP      L**3/T
     ------------------                 ------------------------

           IN:                                      IN:
           ---                                      ---
             STORAGE =      824315.0625               STORAGE =        7553.6836
       CONSTANT HEAD =           0.0000         CONSTANT HEAD =           0.0000
               WELLS =           0.0000                 WELLS =           0.0000
       RIVER LEAKAGE =     1458095.5000         RIVER LEAKAGE =           0.0000
            RECHARGE =       63719.8203              RECHARGE =         343.4863

            TOTAL IN =     2346130.2500              TOTAL IN =        7897.1699

          OUT:                                     OUT:
          ----                                     ----
             STORAGE =     1534078.3750               STORAGE =        1518.7157
       CONSTANT HEAD =           0.0000         CONSTANT HEAD =           0.0000
               WELLS =       24520.0293                 WELLS =         223.5936
       RIVER LEAKAGE =      787680.5625         RIVER LEAKAGE =        6153.2412
            RECHARGE =           0.0000              RECHARGE =           0.0000

           TOTAL OUT =     2346279.0000             TOTAL OUT =        7895.5508

            IN - OUT =        -148.7500              IN - OUT =           1.6191

 PERCENT DISCREPANCY =          -0.01     PERCENT DISCREPANCY =           0.02






         TIME SUMMARY AT END OF TIME STEP   20 IN STRESS PERIOD    3
                    SECONDS     MINUTES      HOURS       DAYS        YEARS
                    -----------------------------------------------------------
   TIME STEP LENGTH  86400.      1440.0      24.000      1.0000     2.73785E-03
 STRESS PERIOD TIME 1.72800E+06  28800.      480.00      20.000     5.47570E-02
         TOTAL TIME 1.04544E+07 1.74240E+05  2904.0      121.00     0.33128    
1

 SOLVING FOR HEAD 

    ------------------------------------------------
       NWT REQUIRED            3 OUTER ITERATIONS 
       AND A TOTAL OF          3 INNER ITERATIONS.
    ------------------------------------------------

 OUTPUT CONTROL FOR STRESS PERIOD    3   TIME STEP   21
    SAVE HEAD FOR ALL LAYERS
    SAVE DRAWDOWN FOR ALL LAYERS
    SAVE BUDGET
    PRINT HEAD FOR ALL LAYERS
    PRINT BUDGET
1
              HEAD IN LAYER   1 AT END OF TIME STEP  21 IN STRESS PERIOD    3
  ---------------------------------------------------------------------------

            1           2           3           4           5           6           7           8           9          10
           11          12          13          14          15          16          17          18          19          20
 ........................................................................................................................
   1    0.000       0.000       0.000       0.000       0.000       7.327       7.323       7.346       7.361       7.374    
        7.396       7.491       7.743       7.373       7.731       7.464       7.379       7.371       0.000       0.000    
   2    0.000       0.000       0.000       0.000       7.388       7.416       7.397       7.449       7.445       7.450    
        7.466       7.536       7.735       7.369       7.689       7.432       7.370       7.370       0.000       0.000    
   3    0.000       0.000       0.000       7.476       7.535       7.639       7.676       7.681       7.659       7.652    
        7.658       7.693       7.786       7.367       7.627       7.357       7.358       7.371       0.000       0.000    
   4    0.000       0.000       7.688       7.693       7.754       7.374       7.380       7.373       7.366       7.368    
        7.374       7.432       7.896       7.365       7.616       7.413       7.376       7.383       0.000       0.000    
   5    0.000       0.000       7.834       7.621       7.373       7.413       7.803       7.726       7.682       7.695    
        7.762       7.383       7.366       7.417       7.596       7.428       7.392       7.401       7.418       0.000    
   6    0.000       7.362       7.364       7.378       7.692       7.746       7.594       7.513       7.485       7.489    
        7.542       7.629       7.648       7.627       7.486       7.407       7.397       7.406       7.419       0.000    
   7    0.000       7.679       7.675       7.669       7.647       7.535       7.454       7.423       7.409       7.401    
        7.409       7.450       7.465       7.456       7.412       7.392       7.390       7.397       0.000       0.000    
   8    0.000       7.505       7.499       7.495       7.477       7.443       7.421       7.409       7.395       7.375    
        7.356       7.379       7.393       7.396       7.387       7.379       7.374       7.381       0.000       0.000    
   9    0.000       0.000       7.438       7.439       7.435       7.429       7.422       7.412       7.394       7.361    
        7.288       7.353       7.376       7.382       7.376       7.359       7.337       7.360       7.378       7.390    
  10    0.000       0.000       7.432       7.433       7.433       7.431       7.426       7.416       7.397       7.370    
        7.341       7.359       7.375       7.379       7.367       7.332       7.251       7.334       7.371       7.388    

 HEAD WILL BE SAVED ON UNIT   51 AT END OF TIME STEP   21, STRESS PERIOD    3

 DRAWDOWN WILL BE SAVED ON UNIT   52 AT END OF TIME STEP   21, STRESS PERIOD    3
1
  VOLUMETRIC BUDGET FOR ENTIRE MODEL AT END OF TIME STEP   21, STRESS PERIOD   3
  ------------------------------------------------------------------------------

     CUMULATIVE VOLUMES      L**3       RATES FOR THIS TIME STEP      L**3/T
     ------------------                 ------------------------

           IN:                                      IN:
           ---                                      ---
             STORAGE =      831460.5625               STORAGE =        7145.5073
       CONSTANT HEAD =           0.0000         CONSTANT HEAD =           0.0000
               WELLS =           0.0000                 WELLS =           0.0000
       RIVER LEAKAGE =     1458095.5000         RIVER LEAKAGE =           0.0000
            RECHARGE =       64063.3047              RECHARGE =         343.4863

            TOTAL IN =     2353619.2500              TOTAL IN =        7488.9937

          OUT:                                     OUT:
          ----                                     ----
             STORAGE =     1535563.0000               STORAGE =        1484.6147
       CONSTANT HEAD =           0.0000         CONSTANT HEAD =           0.0000
               WELLS =       24743.6230                 WELLS =         223.5936
       RIVER LEAKAGE =      793459.8125         RIVER LEAKAGE =        5779.2773
            RECHARGE =           0.0000              RECHARGE =           0.0000

           TOTAL OUT =     2353766.5000             TOTAL OUT =        7487.4858

            IN - OUT =        -147.2500              IN - OUT =           1.5078

 PERCENT DISCREPANCY =          -0.01     PERCENT DISCREPANCY =           0.02






         TIME SUMMARY AT END OF TIME STEP   21 IN STRESS PERIOD    3
                    SECONDS     MINUTES      HOURS       DAYS        YEARS
                    -----------------------------------------------------------
   TIME STEP LENGTH  86400.      1440.0      24.000      1.0000     2.73785E-03
 STRESS PERIOD TIME 1.81440E+06  30240.      504.00      21.000     5.74949E-02
         TOTAL TIME 1.05408E+07 1.75680E+05  2928.0      122.00     0.33402    
1

 SOLVING FOR HEAD 

    ------------------------------------------------
       NWT REQUIRED            3 OUTER ITERATIONS 
       AND A TOTAL OF          3 INNER ITERATIONS.
    ------------------------------------------------

 OUTPUT CONTROL FOR STRESS PERIOD    3   TIME STEP   22
    SAVE HEAD FOR ALL LAYERS
    SAVE DRAWDOWN FOR ALL LAYERS
    SAVE BUDGET
    PRINT HEAD FOR ALL LAYERS
    PRINT BUDGET
1
              HEAD IN LAYER   1 AT END OF TIME STEP  22 IN STRESS PERIOD    3
  ---------------------------------------------------------------------------

            1           2           3           4           5           6           7           8           9          10
           11          12          13          14          15          16          17          18          19          20
 ........................................................................................................................
   1    0.000       0.000       0.000       0.000       0.000       7.328       7.324       7.347       7.361       7.374    
        7.397       7.492       7.739       7.373       7.726       7.465       7.379       7.372       0.000       0.000    
   2    0.000       0.000       0.000       0.000       7.389       7.417       7.397       7.449       7.446       7.451    
        7.467       7.538       7.731       7.369       7.686       7.433       7.370       7.370       0.000       0.000    
   3    0.000       0.000       0.000       7.477       7.536       7.636       7.671       7.677       7.657       7.650    
        7.655       7.691       7.784       7.366       7.625       7.358       7.358       7.371       0.000       0.000    
   4    0.000       0.000       7.689       7.691       7.748       7.373       7.378       7.372       7.365       7.367    
        7.372       7.425       7.887       7.365       7.613       7.414       7.376       7.383       0.000       0.000    
   5    0.000       0.000       7.821       7.607       7.372       7.408       7.796       7.723       7.680       7.692    
        7.757       7.380       7.366       7.411       7.594       7.428       7.392       7.401       7.418       0.000    
   6    0.000       7.362       7.364       7.376       7.678       7.742       7.595       7.514       7.486       7.490    
        7.543       7.626       7.645       7.624       7.486       7.407       7.397       7.406       7.419       0.000    
   7    0.000       7.676       7.672       7.666       7.646       7.535       7.455       7.423       7.409       7.401    
        7.410       7.450       7.465       7.456       7.412       7.392       7.390       7.397       0.000       0.000    
   8    0.000       7.506       7.500       7.496       7.477       7.443       7.421       7.409       7.395       7.375    
        7.356       7.379       7.394       7.397       7.387       7.379       7.374       7.381       0.000       0.000    
   9    0.000       0.000       7.439       7.439       7.436       7.429       7.422       7.412       7.394       7.361    
        7.288       7.353       7.376       7.382       7.376       7.359       7.337       7.360       7.378       7.390    
  10    0.000       0.000       7.432       7.433       7.433       7.431       7.426       7.416       7.397       7.370    
        7.341       7.359       7.375       7.379       7.367       7.332       7.251       7.334       7.371       7.388    

 HEAD WILL BE SAVED ON UNIT   51 AT END OF TIME STEP   22, STRESS PERIOD    3

 DRAWDOWN WILL BE SAVED ON UNIT   52 AT END OF TIME STEP   22, STRESS PERIOD    3
1
  VOLUMETRIC BUDGET FOR ENTIRE MODEL AT END OF TIME STEP   22, STRESS PERIOD   3
  ------------------------------------------------------------------------------

     CUMULATIVE VOLUMES      L**3       RATES FOR THIS TIME STEP      L**3/T
     ------------------                 ------------------------

           IN:                                      IN:
           ---                                      ---
             STORAGE =      838254.4375               STORAGE =        6793.8530
       CONSTANT HEAD =           0.0000         CONSTANT HEAD =           0.0000
               WELLS =           0.0000                 WELLS =           0.0000
       RIVER LEAKAGE =     1458095.5000         RIVER LEAKAGE =           0.0000
            RECHARGE =       64406.7891              RECHARGE =         343.4863

            TOTAL IN =     2360756.7500              TOTAL IN =        7137.3394

          OUT:                                     OUT:
          ----                                     ----
             STORAGE =     1537014.1250               STORAGE =        1451.0985
       CONSTANT HEAD =           0.0000         CONSTANT HEAD =           0.0000
               WELLS =       24967.2168                 WELLS =         223.5936
       RIVER LEAKAGE =      798921.0625         RIVER LEAKAGE =        5461.2324
            RECHARGE =           0.0000              RECHARGE =           0.0000

           TOTAL OUT =     2360902.5000             TOTAL OUT =        7135.9248

            IN - OUT =        -145.7500              IN - OUT =           1.4146

 PERCENT DISCREPANCY =          -0.01     PERCENT DISCREPANCY =           0.02






         TIME SUMMARY AT END OF TIME STEP   22 IN STRESS PERIOD    3
                    SECONDS     MINUTES      HOURS       DAYS        YEARS
                    -----------------------------------------------------------
   TIME STEP LENGTH  86400.      1440.0      24.000      1.0000     2.73785E-03
 STRESS PERIOD TIME 1.90080E+06  31680.      528.00      22.000     6.02327E-02
         TOTAL TIME 1.06272E+07 1.77120E+05  2952.0      123.00     0.33676    
1

 SOLVING FOR HEAD 

    ------------------------------------------------
       NWT REQUIRED            3 OUTER ITERATIONS 
       AND A TOTAL OF          3 INNER ITERATIONS.
    ------------------------------------------------

 OUTPUT CONTROL FOR STRESS PERIOD    3   TIME STEP   23
    SAVE HEAD FOR ALL LAYERS
    SAVE DRAWDOWN FOR ALL LAYERS
    SAVE BUDGET
    PRINT HEAD FOR ALL LAYERS
    PRINT BUDGET
1
              HEAD IN LAYER   1 AT END OF TIME STEP  23 IN STRESS PERIOD    3
  ---------------------------------------------------------------------------

            1           2           3           4           5           6           7           8           9          10
           11          12          13          14          15          16          17          18          19          20
 ........................................................................................................................
   1    0.000       0.000       0.000       0.000       0.000       7.329       7.324       7.347       7.362       7.375    
        7.398       7.493       7.734       7.372       7.722       7.465       7.380       7.372       0.000       0.000    
   2    0.000       0.000       0.000       0.000       7.390       7.417       7.398       7.450       7.447       7.452    
        7.468       7.539       7.728       7.368       7.682       7.434       7.370       7.370       0.000       0.000    
   3    0.000       0.000       0.000       7.479       7.536       7.632       7.666       7.673       7.654       7.647    
        7.653       7.689       7.781       7.365       7.623       7.359       7.359       7.371       0.000       0.000    
   4    0.000       0.000       7.690       7.690       7.742       7.372       7.378       7.371       7.365       7.366    
        7.371       7.419       7.879       7.365       7.611       7.415       7.377       7.383       0.000       0.000    
   5    0.000       0.000       7.808       7.593       7.371       7.404       7.789       7.719       7.677       7.689    
        7.751       7.378       7.365       7.405       7.592       7.429       7.393       7.401       7.418       0.000    
   6    0.000       7.361       7.364       7.375       7.664       7.738       7.596       7.515       7.487       7.491    
        7.544       7.623       7.643       7.621       7.487       7.408       7.397       7.406       7.419       0.000    
   7    0.000       7.674       7.670       7.663       7.645       7.536       7.456       7.424       7.409       7.402    
        7.411       7.451       7.466       7.457       7.413       7.392       7.390       7.397       0.000       0.000    
   8    0.000       7.507       7.501       7.497       7.478       7.444       7.422       7.409       7.395       7.376    
        7.356       7.379       7.394       7.397       7.388       7.379       7.374       7.381       0.000       0.000    
   9    0.000       0.000       7.439       7.439       7.436       7.429       7.422       7.412       7.394       7.361    
        7.288       7.353       7.376       7.382       7.376       7.359       7.337       7.360       7.378       7.390    
  10    0.000       0.000       7.432       7.433       7.433       7.431       7.426       7.416       7.397       7.370    
        7.341       7.359       7.375       7.379       7.367       7.332       7.251       7.334       7.371       7.388    

 HEAD WILL BE SAVED ON UNIT   51 AT END OF TIME STEP   23, STRESS PERIOD    3

 DRAWDOWN WILL BE SAVED ON UNIT   52 AT END OF TIME STEP   23, STRESS PERIOD    3
1
  VOLUMETRIC BUDGET FOR ENTIRE MODEL AT END OF TIME STEP   23, STRESS PERIOD   3
  ------------------------------------------------------------------------------

     CUMULATIVE VOLUMES      L**3       RATES FOR THIS TIME STEP      L**3/T
     ------------------                 ------------------------

           IN:                                      IN:
           ---                                      ---
             STORAGE =      844742.1250               STORAGE =        6487.6787
       CONSTANT HEAD =           0.0000         CONSTANT HEAD =           0.0000
               WELLS =           0.0000                 WELLS =           0.0000
       RIVER LEAKAGE =     1458095.5000         RIVER LEAKAGE =           0.0000
            RECHARGE =       64750.2734              RECHARGE =         343.4863

            TOTAL IN =     2367587.7500              TOTAL IN =        6831.1650

          OUT:                                     OUT:
          ----                                     ----
             STORAGE =     1538432.2500               STORAGE =        1418.1718
       CONSTANT HEAD =           0.0000         CONSTANT HEAD =           0.0000
               WELLS =       25190.8105                 WELLS =         223.5936
       RIVER LEAKAGE =      804109.1250         RIVER LEAKAGE =        5188.0649
            RECHARGE =           0.0000              RECHARGE =           0.0000

           TOTAL OUT =     2367732.0000             TOTAL OUT =        6829.8301

            IN - OUT =        -144.2500              IN - OUT =           1.3350

 PERCENT DISCREPANCY =          -0.01     PERCENT DISCREPANCY =           0.02






         TIME SUMMARY AT END OF TIME STEP   23 IN STRESS PERIOD    3
                    SECONDS     MINUTES      HOURS       DAYS        YEARS
                    -----------------------------------------------------------
   TIME STEP LENGTH  86400.      1440.0      24.000      1.0000     2.73785E-03
 STRESS PERIOD TIME 1.98720E+06  33120.      552.00      23.000     6.29706E-02
         TOTAL TIME 1.07136E+07 1.78560E+05  2976.0      124.00     0.33949    
1

 SOLVING FOR HEAD 

    ------------------------------------------------
       NWT REQUIRED            3 OUTER ITERATIONS 
       AND A TOTAL OF          3 INNER ITERATIONS.
    ------------------------------------------------

 OUTPUT CONTROL FOR STRESS PERIOD    3   TIME STEP   24
    SAVE HEAD FOR ALL LAYERS
    SAVE DRAWDOWN FOR ALL LAYERS
    SAVE BUDGET
    PRINT HEAD FOR ALL LAYERS
    PRINT BUDGET
1
              HEAD IN LAYER   1 AT END OF TIME STEP  24 IN STRESS PERIOD    3
  ---------------------------------------------------------------------------

            1           2           3           4           5           6           7           8           9          10
           11          12          13          14          15          16          17          18          19          20
 ........................................................................................................................
   1    0.000       0.000       0.000       0.000       0.000       7.329       7.325       7.348       7.363       7.375    
        7.399       7.494       7.730       7.372       7.717       7.466       7.380       7.372       0.000       0.000    
   2    0.000       0.000       0.000       0.000       7.391       7.418       7.398       7.451       7.447       7.453    
        7.469       7.540       7.725       7.368       7.679       7.434       7.371       7.370       0.000       0.000    
   3    0.000       0.000       0.000       7.481       7.537       7.629       7.661       7.669       7.651       7.644    
        7.650       7.687       7.779       7.365       7.621       7.359       7.359       7.371       0.000       0.000    
   4    0.000       0.000       7.690       7.688       7.737       7.371       7.377       7.371       7.365       7.366    
        7.370       7.414       7.871       7.364       7.609       7.415       7.377       7.384       0.000       0.000    
   5    0.000       0.000       7.796       7.580       7.370       7.400       7.783       7.716       7.674       7.686    
        7.746       7.376       7.365       7.401       7.590       7.429       7.393       7.401       7.418       0.000    
   6    0.000       7.361       7.363       7.374       7.651       7.733       7.596       7.516       7.488       7.492    
        7.544       7.621       7.640       7.619       7.487       7.408       7.397       7.406       7.419       0.000    
   7    0.000       7.671       7.667       7.661       7.643       7.537       7.457       7.425       7.410       7.402    
        7.411       7.451       7.467       7.457       7.413       7.392       7.390       7.397       0.000       0.000    
   8    0.000       7.508       7.501       7.497       7.479       7.444       7.422       7.409       7.395       7.376    
        7.356       7.379       7.394       7.397       7.388       7.379       7.374       7.381       0.000       0.000    
   9    0.000       0.000       7.440       7.440       7.436       7.429       7.422       7.412       7.394       7.361    
        7.288       7.353       7.376       7.383       7.376       7.359       7.337       7.360       7.378       7.390    
  10    0.000       0.000       7.432       7.433       7.433       7.431       7.426       7.416       7.397       7.370    
        7.341       7.359       7.375       7.379       7.367       7.332       7.251       7.334       7.371       7.388    

 HEAD WILL BE SAVED ON UNIT   51 AT END OF TIME STEP   24, STRESS PERIOD    3

 DRAWDOWN WILL BE SAVED ON UNIT   52 AT END OF TIME STEP   24, STRESS PERIOD    3
1
  VOLUMETRIC BUDGET FOR ENTIRE MODEL AT END OF TIME STEP   24, STRESS PERIOD   3
  ------------------------------------------------------------------------------

     CUMULATIVE VOLUMES      L**3       RATES FOR THIS TIME STEP      L**3/T
     ------------------                 ------------------------

           IN:                                      IN:
           ---                                      ---
             STORAGE =      850960.5000               STORAGE =        6218.3574
       CONSTANT HEAD =           0.0000         CONSTANT HEAD =           0.0000
               WELLS =           0.0000                 WELLS =           0.0000
       RIVER LEAKAGE =     1458095.5000         RIVER LEAKAGE =           0.0000
            RECHARGE =       65093.7578              RECHARGE =         343.4863

            TOTAL IN =     2374149.7500              TOTAL IN =        6561.8438

          OUT:                                     OUT:
          ----                                     ----
             STORAGE =     1539818.1250               STORAGE =        1385.8365
       CONSTANT HEAD =           0.0000         CONSTANT HEAD =           0.0000
               WELLS =       25414.4043                 WELLS =         223.5936
       RIVER LEAKAGE =      809060.2500         RIVER LEAKAGE =        4951.1470
            RECHARGE =           0.0000              RECHARGE =           0.0000

           TOTAL OUT =     2374292.7500             TOTAL OUT =        6560.5771

            IN - OUT =        -143.0000              IN - OUT =           1.2666

 PERCENT DISCREPANCY =          -0.01     PERCENT DISCREPANCY =           0.02






         TIME SUMMARY AT END OF TIME STEP   24 IN STRESS PERIOD    3
                    SECONDS     MINUTES      HOURS       DAYS        YEARS
                    -----------------------------------------------------------
   TIME STEP LENGTH  86400.      1440.0      24.000      1.0000     2.73785E-03
 STRESS PERIOD TIME 2.07360E+06  34560.      576.00      24.000     6.57084E-02
         TOTAL TIME 1.08000E+07 1.80000E+05  3000.0      125.00     0.34223    
1

 SOLVING FOR HEAD 

    ------------------------------------------------
       NWT REQUIRED            3 OUTER ITERATIONS 
       AND A TOTAL OF          3 INNER ITERATIONS.
    ------------------------------------------------

 OUTPUT CONTROL FOR STRESS PERIOD    3   TIME STEP   25
    SAVE HEAD FOR ALL LAYERS
    SAVE DRAWDOWN FOR ALL LAYERS
    SAVE BUDGET
    PRINT HEAD FOR ALL LAYERS
    PRINT BUDGET
1
              HEAD IN LAYER   1 AT END OF TIME STEP  25 IN STRESS PERIOD    3
  ---------------------------------------------------------------------------

            1           2           3           4           5           6           7           8           9          10
           11          12          13          14          15          16          17          18          19          20
 ........................................................................................................................
   1    0.000       0.000       0.000       0.000       0.000       7.330       7.325       7.349       7.363       7.376    
        7.400       7.495       7.726       7.372       7.713       7.467       7.380       7.372       0.000       0.000    
   2    0.000       0.000       0.000       0.000       7.392       7.419       7.398       7.452       7.448       7.453    
        7.470       7.541       7.722       7.368       7.675       7.435       7.371       7.370       0.000       0.000    
   3    0.000       0.000       0.000       7.482       7.537       7.625       7.656       7.665       7.648       7.642    
        7.648       7.685       7.777       7.365       7.618       7.360       7.359       7.371       0.000       0.000    
   4    0.000       0.000       7.691       7.686       7.731       7.370       7.376       7.370       7.364       7.366    
        7.370       7.410       7.863       7.364       7.607       7.416       7.377       7.384       0.000       0.000    
   5    0.000       0.000       7.784       7.568       7.369       7.397       7.776       7.713       7.672       7.684    
        7.741       7.375       7.365       7.397       7.588       7.430       7.393       7.401       7.418       0.000    
   6    0.000       7.360       7.363       7.373       7.638       7.729       7.597       7.517       7.489       7.493    
        7.545       7.618       7.637       7.616       7.488       7.409       7.397       7.406       7.419       0.000    
   7    0.000       7.668       7.664       7.658       7.642       7.538       7.458       7.425       7.410       7.403    
        7.412       7.452       7.467       7.458       7.414       7.392       7.390       7.397       0.000       0.000    
   8    0.000       7.509       7.502       7.498       7.480       7.445       7.422       7.409       7.395       7.376    
        7.357       7.380       7.395       7.397       7.388       7.379       7.374       7.381       0.000       0.000    
   9    0.000       0.000       7.440       7.440       7.437       7.429       7.422       7.412       7.394       7.361    
        7.288       7.353       7.376       7.383       7.376       7.359       7.337       7.360       7.378       7.390    
  10    0.000       0.000       7.432       7.433       7.433       7.431       7.426       7.416       7.397       7.370    
        7.341       7.359       7.375       7.379       7.367       7.332       7.251       7.334       7.371       7.388    

 HEAD WILL BE SAVED ON UNIT   51 AT END OF TIME STEP   25, STRESS PERIOD    3

 DRAWDOWN WILL BE SAVED ON UNIT   52 AT END OF TIME STEP   25, STRESS PERIOD    3
1
  VOLUMETRIC BUDGET FOR ENTIRE MODEL AT END OF TIME STEP   25, STRESS PERIOD   3
  ------------------------------------------------------------------------------

     CUMULATIVE VOLUMES      L**3       RATES FOR THIS TIME STEP      L**3/T
     ------------------                 ------------------------

           IN:                                      IN:
           ---                                      ---
             STORAGE =      856939.6875               STORAGE =        5979.1714
       CONSTANT HEAD =           0.0000         CONSTANT HEAD =           0.0000
               WELLS =           0.0000                 WELLS =           0.0000
       RIVER LEAKAGE =     1458095.5000         RIVER LEAKAGE =           0.0000
            RECHARGE =       65437.2422              RECHARGE =         343.4863

            TOTAL IN =     2380472.5000              TOTAL IN =        6322.6577

          OUT:                                     OUT:
          ----                                     ----
             STORAGE =     1541172.2500               STORAGE =        1354.0931
       CONSTANT HEAD =           0.0000         CONSTANT HEAD =           0.0000
               WELLS =       25637.9980                 WELLS =         223.5936
       RIVER LEAKAGE =      813804.0000         RIVER LEAKAGE =        4743.7637
            RECHARGE =           0.0000              RECHARGE =           0.0000

           TOTAL OUT =     2380614.2500             TOTAL OUT =        6321.4502

            IN - OUT =        -141.7500              IN - OUT =           1.2075

 PERCENT DISCREPANCY =          -0.01     PERCENT DISCREPANCY =           0.02






         TIME SUMMARY AT END OF TIME STEP   25 IN STRESS PERIOD    3
                    SECONDS     MINUTES      HOURS       DAYS        YEARS
                    -----------------------------------------------------------
   TIME STEP LENGTH  86400.      1440.0      24.000      1.0000     2.73785E-03
 STRESS PERIOD TIME 2.16000E+06  36000.      600.00      25.000     6.84463E-02
         TOTAL TIME 1.08864E+07 1.81440E+05  3024.0      126.00     0.34497    
1

 SOLVING FOR HEAD 

    ------------------------------------------------
       NWT REQUIRED            3 OUTER ITERATIONS 
       AND A TOTAL OF          3 INNER ITERATIONS.
    ------------------------------------------------

 OUTPUT CONTROL FOR STRESS PERIOD    3   TIME STEP   26
    SAVE HEAD FOR ALL LAYERS
    SAVE DRAWDOWN FOR ALL LAYERS
    SAVE BUDGET
    PRINT HEAD FOR ALL LAYERS
    PRINT BUDGET
1
              HEAD IN LAYER   1 AT END OF TIME STEP  26 IN STRESS PERIOD    3
  ---------------------------------------------------------------------------

            1           2           3           4           5           6           7           8           9          10
           11          12          13          14          15          16          17          18          19          20
 ........................................................................................................................
   1    0.000       0.000       0.000       0.000       0.000       7.330       7.326       7.349       7.364       7.377    
        7.400       7.496       7.721       7.371       7.708       7.467       7.381       7.372       0.000       0.000    
   2    0.000       0.000       0.000       0.000       7.393       7.419       7.399       7.452       7.449       7.454    
        7.471       7.542       7.719       7.367       7.672       7.436       7.371       7.370       0.000       0.000    
   3    0.000       0.000       0.000       7.484       7.538       7.622       7.651       7.661       7.646       7.639    
        7.645       7.683       7.775       7.365       7.616       7.360       7.359       7.371       0.000       0.000    
   4    0.000       0.000       7.691       7.685       7.726       7.370       7.376       7.370       7.364       7.365    
        7.369       7.406       7.855       7.364       7.605       7.416       7.377       7.384       0.000       0.000    
   5    0.000       0.000       7.772       7.557       7.369       7.394       7.770       7.709       7.669       7.681    
        7.735       7.374       7.364       7.393       7.585       7.430       7.393       7.401       7.418       0.000    
   6    0.000       7.360       7.363       7.372       7.626       7.725       7.597       7.518       7.489       7.494    
        7.545       7.615       7.635       7.613       7.488       7.409       7.397       7.406       7.419       0.000    
   7    0.000       7.665       7.662       7.655       7.640       7.539       7.459       7.426       7.411       7.403    
        7.413       7.452       7.468       7.458       7.414       7.393       7.390       7.397       0.000       0.000    
   8    0.000       7.510       7.503       7.498       7.480       7.446       7.423       7.409       7.395       7.376    
        7.357       7.380       7.395       7.398       7.388       7.379       7.374       7.381       0.000       0.000    
   9    0.000       0.000       7.440       7.440       7.437       7.430       7.422       7.412       7.394       7.361    
        7.288       7.353       7.376       7.383       7.376       7.359       7.337       7.360       7.378       7.390    
  10    0.000       0.000       7.433       7.433       7.433       7.431       7.426       7.416       7.397       7.370    
        7.341       7.359       7.375       7.379       7.367       7.332       7.250       7.334       7.371       7.388    

 HEAD WILL BE SAVED ON UNIT   51 AT END OF TIME STEP   26, STRESS PERIOD    3

 DRAWDOWN WILL BE SAVED ON UNIT   52 AT END OF TIME STEP   26, STRESS PERIOD    3
1
  VOLUMETRIC BUDGET FOR ENTIRE MODEL AT END OF TIME STEP   26, STRESS PERIOD   3
  ------------------------------------------------------------------------------

     CUMULATIVE VOLUMES      L**3       RATES FOR THIS TIME STEP      L**3/T
     ------------------                 ------------------------

           IN:                                      IN:
           ---                                      ---
             STORAGE =      862704.5000               STORAGE =        5764.8188
       CONSTANT HEAD =           0.0000         CONSTANT HEAD =           0.0000
               WELLS =           0.0000                 WELLS =           0.0000
       RIVER LEAKAGE =     1458095.5000         RIVER LEAKAGE =           0.0000
            RECHARGE =       65780.7266              RECHARGE =         343.4863

            TOTAL IN =     2386580.7500              TOTAL IN =        6108.3052

          OUT:                                     OUT:
          ----                                     ----
             STORAGE =     1542495.2500               STORAGE =        1322.9412
       CONSTANT HEAD =           0.0000         CONSTANT HEAD =           0.0000
               WELLS =       25861.5918                 WELLS =         223.5936
       RIVER LEAKAGE =      818364.6250         RIVER LEAKAGE =        4560.6147
            RECHARGE =           0.0000              RECHARGE =           0.0000

           TOTAL OUT =     2386721.5000             TOTAL OUT =        6107.1494

            IN - OUT =        -140.7500              IN - OUT =           1.1558

 PERCENT DISCREPANCY =          -0.01     PERCENT DISCREPANCY =           0.02






         TIME SUMMARY AT END OF TIME STEP   26 IN STRESS PERIOD    3
                    SECONDS     MINUTES      HOURS       DAYS        YEARS
                    -----------------------------------------------------------
   TIME STEP LENGTH  86400.      1440.0      24.000      1.0000     2.73785E-03
 STRESS PERIOD TIME 2.24640E+06  37440.      624.00      26.000     7.11841E-02
         TOTAL TIME 1.09728E+07 1.82880E+05  3048.0      127.00     0.34771    
1

 SOLVING FOR HEAD 

    ------------------------------------------------
       NWT REQUIRED            3 OUTER ITERATIONS 
       AND A TOTAL OF          3 INNER ITERATIONS.
    ------------------------------------------------

 OUTPUT CONTROL FOR STRESS PERIOD    3   TIME STEP   27
    SAVE HEAD FOR ALL LAYERS
    SAVE DRAWDOWN FOR ALL LAYERS
    SAVE BUDGET
    PRINT HEAD FOR ALL LAYERS
    PRINT BUDGET
1
              HEAD IN LAYER   1 AT END OF TIME STEP  27 IN STRESS PERIOD    3
  ---------------------------------------------------------------------------

            1           2           3           4           5           6           7           8           9          10
           11          12          13          14          15          16          17          18          19          20
 ........................................................................................................................
   1    0.000       0.000       0.000       0.000       0.000       7.331       7.327       7.350       7.364       7.377    
        7.401       7.497       7.717       7.371       7.704       7.468       7.381       7.372       0.000       0.000    
   2    0.000       0.000       0.000       0.000       7.394       7.420       7.399       7.453       7.450       7.455    
        7.472       7.543       7.716       7.367       7.668       7.436       7.372       7.370       0.000       0.000    
   3    0.000       0.000       0.000       7.485       7.538       7.619       7.647       7.657       7.643       7.637    
        7.643       7.681       7.772       7.364       7.614       7.361       7.360       7.371       0.000       0.000    
   4    0.000       0.000       7.692       7.683       7.721       7.369       7.375       7.370       7.364       7.365    
        7.369       7.403       7.848       7.363       7.603       7.417       7.378       7.384       0.000       0.000    
   5    0.000       0.000       7.761       7.546       7.368       7.391       7.763       7.706       7.667       7.678    
        7.730       7.373       7.364       7.390       7.583       7.431       7.393       7.401       7.417       0.000    
   6    0.000       7.360       7.363       7.371       7.615       7.721       7.598       7.518       7.490       7.494    
        7.546       7.613       7.632       7.611       7.489       7.409       7.397       7.406       7.419       0.000    
   7    0.000       7.663       7.659       7.653       7.639       7.539       7.460       7.426       7.411       7.404    
        7.413       7.453       7.468       7.459       7.415       7.393       7.391       7.397       0.000       0.000    
   8    0.000       7.511       7.503       7.499       7.481       7.446       7.423       7.410       7.395       7.376    
        7.357       7.380       7.395       7.398       7.388       7.379       7.374       7.381       0.000       0.000    
   9    0.000       0.000       7.441       7.441       7.437       7.430       7.422       7.412       7.394       7.361    
        7.288       7.353       7.376       7.383       7.376       7.359       7.337       7.360       7.378       7.390    
  10    0.000       0.000       7.433       7.434       7.433       7.431       7.426       7.416       7.397       7.370    
        7.341       7.359       7.375       7.379       7.367       7.332       7.250       7.334       7.371       7.388    

 HEAD WILL BE SAVED ON UNIT   51 AT END OF TIME STEP   27, STRESS PERIOD    3

 DRAWDOWN WILL BE SAVED ON UNIT   52 AT END OF TIME STEP   27, STRESS PERIOD    3
1
  VOLUMETRIC BUDGET FOR ENTIRE MODEL AT END OF TIME STEP   27, STRESS PERIOD   3
  ------------------------------------------------------------------------------

     CUMULATIVE VOLUMES      L**3       RATES FOR THIS TIME STEP      L**3/T
     ------------------                 ------------------------

           IN:                                      IN:
           ---                                      ---
             STORAGE =      868275.5625               STORAGE =        5571.0913
       CONSTANT HEAD =           0.0000         CONSTANT HEAD =           0.0000
               WELLS =           0.0000                 WELLS =           0.0000
       RIVER LEAKAGE =     1458095.5000         RIVER LEAKAGE =           0.0000
            RECHARGE =       66124.2109              RECHARGE =         343.4863

            TOTAL IN =     2392495.2500              TOTAL IN =        5914.5776

          OUT:                                     OUT:
          ----                                     ----
             STORAGE =     1543787.6250               STORAGE =        1292.3829
       CONSTANT HEAD =           0.0000         CONSTANT HEAD =           0.0000
               WELLS =       26085.1855                 WELLS =         223.5936
       RIVER LEAKAGE =      822762.1250         RIVER LEAKAGE =        4397.4912
            RECHARGE =           0.0000              RECHARGE =           0.0000

           TOTAL OUT =     2392635.0000             TOTAL OUT =        5913.4678

            IN - OUT =        -139.7500              IN - OUT =           1.1099

 PERCENT DISCREPANCY =          -0.01     PERCENT DISCREPANCY =           0.02






         TIME SUMMARY AT END OF TIME STEP   27 IN STRESS PERIOD    3
                    SECONDS     MINUTES      HOURS       DAYS        YEARS
                    -----------------------------------------------------------
   TIME STEP LENGTH  86400.      1440.0      24.000      1.0000     2.73785E-03
 STRESS PERIOD TIME 2.33280E+06  38880.      648.00      27.000     7.39220E-02
         TOTAL TIME 1.10592E+07 1.84320E+05  3072.0      128.00     0.35044    
1

 SOLVING FOR HEAD 

    ------------------------------------------------
       NWT REQUIRED            3 OUTER ITERATIONS 
       AND A TOTAL OF          3 INNER ITERATIONS.
    ------------------------------------------------

 OUTPUT CONTROL FOR STRESS PERIOD    3   TIME STEP   28
    SAVE HEAD FOR ALL LAYERS
    SAVE DRAWDOWN FOR ALL LAYERS
    SAVE BUDGET
    PRINT HEAD FOR ALL LAYERS
    PRINT BUDGET
1
              HEAD IN LAYER   1 AT END OF TIME STEP  28 IN STRESS PERIOD    3
  ---------------------------------------------------------------------------

            1           2           3           4           5           6           7           8           9          10
           11          12          13          14          15          16          17          18          19          20
 ........................................................................................................................
   1    0.000       0.000       0.000       0.000       0.000       7.331       7.327       7.350       7.365       7.378    
        7.402       7.498       7.713       7.371       7.700       7.468       7.382       7.372       0.000       0.000    
   2    0.000       0.000       0.000       0.000       7.395       7.420       7.399       7.453       7.450       7.456    
        7.472       7.544       7.713       7.367       7.665       7.437       7.372       7.370       0.000       0.000    
   3    0.000       0.000       0.000       7.487       7.539       7.616       7.642       7.653       7.640       7.634    
        7.640       7.679       7.770       7.364       7.612       7.361       7.360       7.371       0.000       0.000    
   4    0.000       0.000       7.692       7.681       7.715       7.369       7.375       7.369       7.364       7.365    
        7.368       7.400       7.840       7.363       7.601       7.417       7.378       7.384       0.000       0.000    
   5    0.000       0.000       7.750       7.536       7.367       7.389       7.757       7.703       7.664       7.676    
        7.725       7.372       7.364       7.387       7.581       7.431       7.393       7.401       7.417       0.000    
   6    0.000       7.360       7.362       7.370       7.604       7.717       7.598       7.519       7.491       7.495    
        7.546       7.610       7.629       7.608       7.489       7.410       7.397       7.406       7.419       0.000    
   7    0.000       7.660       7.656       7.650       7.638       7.540       7.461       7.427       7.412       7.404    
        7.414       7.453       7.468       7.459       7.415       7.393       7.391       7.397       0.000       0.000    
   8    0.000       7.512       7.504       7.500       7.482       7.447       7.423       7.410       7.395       7.376    
        7.357       7.380       7.396       7.398       7.388       7.379       7.374       7.381       0.000       0.000    
   9    0.000       0.000       7.441       7.441       7.437       7.430       7.422       7.412       7.394       7.361    
        7.288       7.353       7.377       7.383       7.376       7.359       7.337       7.360       7.378       7.390    
  10    0.000       0.000       7.433       7.434       7.434       7.431       7.426       7.416       7.397       7.370    
        7.341       7.359       7.375       7.379       7.367       7.332       7.250       7.334       7.371       7.388    

 HEAD WILL BE SAVED ON UNIT   51 AT END OF TIME STEP   28, STRESS PERIOD    3

 DRAWDOWN WILL BE SAVED ON UNIT   52 AT END OF TIME STEP   28, STRESS PERIOD    3
1
  VOLUMETRIC BUDGET FOR ENTIRE MODEL AT END OF TIME STEP   28, STRESS PERIOD   3
  ------------------------------------------------------------------------------

     CUMULATIVE VOLUMES      L**3       RATES FOR THIS TIME STEP      L**3/T
     ------------------                 ------------------------

           IN:                                      IN:
           ---                                      ---
             STORAGE =      873670.2500               STORAGE =        5394.6562
       CONSTANT HEAD =           0.0000         CONSTANT HEAD =           0.0000
               WELLS =           0.0000                 WELLS =           0.0000
       RIVER LEAKAGE =     1458095.5000         RIVER LEAKAGE =           0.0000
            RECHARGE =       66467.6953              RECHARGE =         343.4863

            TOTAL IN =     2398233.5000              TOTAL IN =        5738.1426

          OUT:                                     OUT:
          ----                                     ----
             STORAGE =     1545050.0000               STORAGE =        1262.4065
       CONSTANT HEAD =           0.0000         CONSTANT HEAD =           0.0000
               WELLS =       26308.7793                 WELLS =         223.5936
       RIVER LEAKAGE =      827013.1875         RIVER LEAKAGE =        4251.0732
            RECHARGE =           0.0000              RECHARGE =           0.0000

           TOTAL OUT =     2398372.0000             TOTAL OUT =        5737.0732

            IN - OUT =        -138.5000              IN - OUT =           1.0693

 PERCENT DISCREPANCY =          -0.01     PERCENT DISCREPANCY =           0.02






         TIME SUMMARY AT END OF TIME STEP   28 IN STRESS PERIOD    3
                    SECONDS     MINUTES      HOURS       DAYS        YEARS
                    -----------------------------------------------------------
   TIME STEP LENGTH  86400.      1440.0      24.000      1.0000     2.73785E-03
 STRESS PERIOD TIME 2.41920E+06  40320.      672.00      28.000     7.66598E-02
         TOTAL TIME 1.11456E+07 1.85760E+05  3096.0      129.00     0.35318    
1

 SOLVING FOR HEAD 

    ------------------------------------------------
       NWT REQUIRED            3 OUTER ITERATIONS 
       AND A TOTAL OF          3 INNER ITERATIONS.
    ------------------------------------------------

 OUTPUT CONTROL FOR STRESS PERIOD    3   TIME STEP   29
    SAVE HEAD FOR ALL LAYERS
    SAVE DRAWDOWN FOR ALL LAYERS
    SAVE BUDGET
    PRINT HEAD FOR ALL LAYERS
    PRINT BUDGET
1
              HEAD IN LAYER   1 AT END OF TIME STEP  29 IN STRESS PERIOD    3
  ---------------------------------------------------------------------------

            1           2           3           4           5           6           7           8           9          10
           11          12          13          14          15          16          17          18          19          20
 ........................................................................................................................
   1    0.000       0.000       0.000       0.000       0.000       7.332       7.328       7.351       7.365       7.378    
        7.403       7.499       7.709       7.371       7.696       7.469       7.382       7.372       0.000       0.000    
   2    0.000       0.000       0.000       0.000       7.396       7.421       7.400       7.454       7.451       7.456    
        7.473       7.545       7.710       7.367       7.662       7.437       7.372       7.370       0.000       0.000    
   3    0.000       0.000       0.000       7.488       7.539       7.612       7.638       7.650       7.638       7.632    
        7.638       7.676       7.768       7.364       7.610       7.362       7.360       7.371       0.000       0.000    
   4    0.000       0.000       7.693       7.680       7.710       7.368       7.374       7.369       7.364       7.365    
        7.368       7.397       7.832       7.363       7.599       7.418       7.378       7.384       0.000       0.000    
   5    0.000       0.000       7.739       7.527       7.367       7.387       7.751       7.699       7.662       7.673    
        7.720       7.371       7.364       7.385       7.579       7.431       7.394       7.401       7.417       0.000    
   6    0.000       7.360       7.362       7.370       7.594       7.713       7.599       7.520       7.492       7.496    
        7.546       7.608       7.627       7.606       7.489       7.410       7.397       7.406       7.419       0.000    
   7    0.000       7.658       7.654       7.648       7.636       7.541       7.462       7.427       7.412       7.405    
        7.414       7.453       7.469       7.459       7.415       7.393       7.391       7.397       0.000       0.000    
   8    0.000       7.513       7.505       7.500       7.482       7.447       7.424       7.410       7.396       7.376    
        7.357       7.381       7.396       7.398       7.388       7.379       7.374       7.381       0.000       0.000    
   9    0.000       0.000       7.442       7.441       7.438       7.430       7.422       7.412       7.394       7.361    
        7.288       7.353       7.377       7.383       7.376       7.359       7.337       7.360       7.378       7.390    
  10    0.000       0.000       7.433       7.434       7.434       7.431       7.426       7.415       7.397       7.370    
        7.341       7.359       7.375       7.379       7.367       7.332       7.250       7.334       7.371       7.388    

 HEAD WILL BE SAVED ON UNIT   51 AT END OF TIME STEP   29, STRESS PERIOD    3

 DRAWDOWN WILL BE SAVED ON UNIT   52 AT END OF TIME STEP   29, STRESS PERIOD    3
1
  VOLUMETRIC BUDGET FOR ENTIRE MODEL AT END OF TIME STEP   29, STRESS PERIOD   3
  ------------------------------------------------------------------------------

     CUMULATIVE VOLUMES      L**3       RATES FOR THIS TIME STEP      L**3/T
     ------------------                 ------------------------

           IN:                                      IN:
           ---                                      ---
             STORAGE =      878903.0625               STORAGE =        5232.8350
       CONSTANT HEAD =           0.0000         CONSTANT HEAD =           0.0000
               WELLS =           0.0000                 WELLS =           0.0000
       RIVER LEAKAGE =     1458095.5000         RIVER LEAKAGE =           0.0000
            RECHARGE =       66811.1797              RECHARGE =         343.4863

            TOTAL IN =     2403809.7500              TOTAL IN =        5576.3213

          OUT:                                     OUT:
          ----                                     ----
             STORAGE =     1546283.0000               STORAGE =        1233.0072
       CONSTANT HEAD =           0.0000         CONSTANT HEAD =           0.0000
               WELLS =       26532.3730                 WELLS =         223.5936
       RIVER LEAKAGE =      831131.8750         RIVER LEAKAGE =        4118.6880
            RECHARGE =           0.0000              RECHARGE =           0.0000

           TOTAL OUT =     2403947.2500             TOTAL OUT =        5575.2891

            IN - OUT =        -137.5000              IN - OUT =           1.0322

 PERCENT DISCREPANCY =          -0.01     PERCENT DISCREPANCY =           0.02






         TIME SUMMARY AT END OF TIME STEP   29 IN STRESS PERIOD    3
                    SECONDS     MINUTES      HOURS       DAYS        YEARS
                    -----------------------------------------------------------
   TIME STEP LENGTH  86400.      1440.0      24.000      1.0000     2.73785E-03
 STRESS PERIOD TIME 2.50560E+06  41760.      696.00      29.000     7.93977E-02
         TOTAL TIME 1.12320E+07 1.87200E+05  3120.0      130.00     0.35592    
1

 SOLVING FOR HEAD 

    ------------------------------------------------
       NWT REQUIRED            3 OUTER ITERATIONS 
       AND A TOTAL OF          3 INNER ITERATIONS.
    ------------------------------------------------

 OUTPUT CONTROL FOR STRESS PERIOD    3   TIME STEP   30
    SAVE HEAD FOR ALL LAYERS
    SAVE DRAWDOWN FOR ALL LAYERS
    SAVE BUDGET
    PRINT HEAD FOR ALL LAYERS
    PRINT BUDGET
1
              HEAD IN LAYER   1 AT END OF TIME STEP  30 IN STRESS PERIOD    3
  ---------------------------------------------------------------------------

            1           2           3           4           5           6           7           8           9          10
           11          12          13          14          15          16          17          18          19          20
 ........................................................................................................................
   1    0.000       0.000       0.000       0.000       0.000       7.332       7.329       7.352       7.366       7.379    
        7.404       7.500       7.705       7.371       7.691       7.469       7.382       7.372       0.000       0.000    
   2    0.000       0.000       0.000       0.000       7.397       7.421       7.400       7.454       7.452       7.457    
        7.474       7.546       7.707       7.367       7.659       7.438       7.373       7.370       0.000       0.000    
   3    0.000       0.000       0.000       7.489       7.540       7.609       7.633       7.646       7.635       7.629    
        7.636       7.674       7.766       7.364       7.608       7.363       7.361       7.371       0.000       0.000    
   4    0.000       0.000       7.693       7.678       7.705       7.368       7.374       7.369       7.364       7.365    
        7.368       7.395       7.825       7.363       7.597       7.418       7.378       7.384       0.000       0.000    
   5    0.000       0.000       7.729       7.518       7.367       7.386       7.745       7.696       7.660       7.671    
        7.716       7.371       7.364       7.383       7.577       7.432       7.394       7.401       7.417       0.000    
   6    0.000       7.360       7.362       7.369       7.585       7.709       7.599       7.521       7.493       7.497    
        7.547       7.606       7.624       7.603       7.490       7.411       7.397       7.406       7.419       0.000    
   7    0.000       7.655       7.651       7.645       7.634       7.541       7.462       7.428       7.413       7.405    
        7.415       7.454       7.469       7.460       7.416       7.393       7.391       7.397       0.000       0.000    
   8    0.000       7.514       7.505       7.501       7.483       7.448       7.424       7.410       7.396       7.376    
        7.357       7.381       7.396       7.399       7.389       7.379       7.374       7.381       0.000       0.000    
   9    0.000       0.000       7.442       7.442       7.438       7.430       7.422       7.412       7.394       7.361    
        7.288       7.353       7.377       7.383       7.376       7.359       7.337       7.360       7.378       7.390    
  10    0.000       0.000       7.433       7.434       7.434       7.432       7.426       7.415       7.397       7.370    
        7.341       7.359       7.375       7.379       7.367       7.332       7.250       7.334       7.371       7.388    

 HEAD WILL BE SAVED ON UNIT   51 AT END OF TIME STEP   30, STRESS PERIOD    3

 DRAWDOWN WILL BE SAVED ON UNIT   52 AT END OF TIME STEP   30, STRESS PERIOD    3
1
  VOLUMETRIC BUDGET FOR ENTIRE MODEL AT END OF TIME STEP   30, STRESS PERIOD   3
  ------------------------------------------------------------------------------

     CUMULATIVE VOLUMES      L**3       RATES FOR THIS TIME STEP      L**3/T
     ------------------                 ------------------------

           IN:                                      IN:
           ---                                      ---
             STORAGE =      883986.5000               STORAGE =        5083.4604
       CONSTANT HEAD =           0.0000         CONSTANT HEAD =           0.0000
               WELLS =           0.0000                 WELLS =           0.0000
       RIVER LEAKAGE =     1458095.5000         RIVER LEAKAGE =           0.0000
            RECHARGE =       67154.6641              RECHARGE =         343.4863

            TOTAL IN =     2409236.7500              TOTAL IN =        5426.9468

          OUT:                                     OUT:
          ----                                     ----
             STORAGE =     1547487.1250               STORAGE =        1204.1782
       CONSTANT HEAD =           0.0000         CONSTANT HEAD =           0.0000
               WELLS =       26755.9668                 WELLS =         223.5936
       RIVER LEAKAGE =      835130.0625         RIVER LEAKAGE =        3998.1753
            RECHARGE =           0.0000              RECHARGE =           0.0000

           TOTAL OUT =     2409373.2500             TOTAL OUT =        5425.9473

            IN - OUT =        -136.5000              IN - OUT =           0.9995

 PERCENT DISCREPANCY =          -0.01     PERCENT DISCREPANCY =           0.02






         TIME SUMMARY AT END OF TIME STEP   30 IN STRESS PERIOD    3
                    SECONDS     MINUTES      HOURS       DAYS        YEARS
                    -----------------------------------------------------------
   TIME STEP LENGTH  86400.      1440.0      24.000      1.0000     2.73785E-03
 STRESS PERIOD TIME 2.59200E+06  43200.      720.00      30.000     8.21355E-02
         TOTAL TIME 1.13184E+07 1.88640E+05  3144.0      131.00     0.35866    
1

 SOLVING FOR HEAD 

    ------------------------------------------------
       NWT REQUIRED            3 OUTER ITERATIONS 
       AND A TOTAL OF          3 INNER ITERATIONS.
    ------------------------------------------------

 OUTPUT CONTROL FOR STRESS PERIOD    3   TIME STEP   31
    SAVE HEAD FOR ALL LAYERS
    SAVE DRAWDOWN FOR ALL LAYERS
    SAVE BUDGET
    PRINT HEAD FOR ALL LAYERS
    PRINT BUDGET
1
              HEAD IN LAYER   1 AT END OF TIME STEP  31 IN STRESS PERIOD    3
  ---------------------------------------------------------------------------

            1           2           3           4           5           6           7           8           9          10
           11          12          13          14          15          16          17          18          19          20
 ........................................................................................................................
   1    0.000       0.000       0.000       0.000       0.000       7.333       7.329       7.352       7.366       7.379    
        7.404       7.500       7.701       7.370       7.687       7.470       7.383       7.372       0.000       0.000    
   2    0.000       0.000       0.000       0.000       7.398       7.422       7.400       7.455       7.452       7.458    
        7.475       7.547       7.705       7.367       7.655       7.438       7.373       7.370       0.000       0.000    
   3    0.000       0.000       0.000       7.491       7.540       7.606       7.629       7.642       7.633       7.627    
        7.634       7.672       7.763       7.364       7.606       7.363       7.361       7.371       0.000       0.000    
   4    0.000       0.000       7.693       7.676       7.701       7.368       7.374       7.369       7.364       7.364    
        7.367       7.393       7.818       7.363       7.595       7.419       7.379       7.384       0.000       0.000    
   5    0.000       0.000       7.719       7.510       7.366       7.384       7.739       7.693       7.657       7.668    
        7.711       7.370       7.364       7.381       7.575       7.432       7.394       7.401       7.417       0.000    
   6    0.000       7.359       7.362       7.368       7.576       7.705       7.599       7.522       7.493       7.498    
        7.547       7.603       7.622       7.601       7.490       7.411       7.397       7.406       7.419       0.000    
   7    0.000       7.653       7.649       7.643       7.633       7.542       7.463       7.429       7.413       7.406    
        7.416       7.454       7.470       7.460       7.416       7.393       7.391       7.397       0.000       0.000    
   8    0.000       7.515       7.506       7.501       7.483       7.448       7.424       7.410       7.396       7.377    
        7.358       7.381       7.396       7.399       7.389       7.379       7.374       7.381       0.000       0.000    
   9    0.000       0.000       7.442       7.442       7.438       7.430       7.423       7.412       7.394       7.361    
        7.288       7.353       7.377       7.383       7.376       7.359       7.337       7.360       7.378       7.390    
  10    0.000       0.000       7.433       7.434       7.434       7.432       7.426       7.415       7.397       7.370    
        7.340       7.359       7.375       7.379       7.367       7.332       7.250       7.334       7.371       7.388    

 HEAD WILL BE SAVED ON UNIT   51 AT END OF TIME STEP   31, STRESS PERIOD    3

 DRAWDOWN WILL BE SAVED ON UNIT   52 AT END OF TIME STEP   31, STRESS PERIOD    3
1
  VOLUMETRIC BUDGET FOR ENTIRE MODEL AT END OF TIME STEP   31, STRESS PERIOD   3
  ------------------------------------------------------------------------------

     CUMULATIVE VOLUMES      L**3       RATES FOR THIS TIME STEP      L**3/T
     ------------------                 ------------------------

           IN:                                      IN:
           ---                                      ---
             STORAGE =      888931.3125               STORAGE =        4944.7915
       CONSTANT HEAD =           0.0000         CONSTANT HEAD =           0.0000
               WELLS =           0.0000                 WELLS =           0.0000
       RIVER LEAKAGE =     1458095.5000         RIVER LEAKAGE =           0.0000
            RECHARGE =       67498.1484              RECHARGE =         343.4863

            TOTAL IN =     2414525.0000              TOTAL IN =        5288.2778

          OUT:                                     OUT:
          ----                                     ----
             STORAGE =     1548663.0000               STORAGE =        1175.9121
       CONSTANT HEAD =           0.0000         CONSTANT HEAD =           0.0000
               WELLS =       26979.5605                 WELLS =         223.5936
       RIVER LEAKAGE =      839017.8750         RIVER LEAKAGE =        3887.8025
            RECHARGE =           0.0000              RECHARGE =           0.0000

           TOTAL OUT =     2414660.5000             TOTAL OUT =        5287.3081

            IN - OUT =        -135.5000              IN - OUT =           0.9697

 PERCENT DISCREPANCY =          -0.01     PERCENT DISCREPANCY =           0.02






         TIME SUMMARY AT END OF TIME STEP   31 IN STRESS PERIOD    3
                    SECONDS     MINUTES      HOURS       DAYS        YEARS
                    -----------------------------------------------------------
   TIME STEP LENGTH  86400.      1440.0      24.000      1.0000     2.73785E-03
 STRESS PERIOD TIME 2.67840E+06  44640.      744.00      31.000     8.48734E-02
         TOTAL TIME 1.14048E+07 1.90080E+05  3168.0      132.00     0.36140    
1

 SOLVING FOR HEAD 

    ------------------------------------------------
       NWT REQUIRED            3 OUTER ITERATIONS 
       AND A TOTAL OF          3 INNER ITERATIONS.
    ------------------------------------------------

 OUTPUT CONTROL FOR STRESS PERIOD    3   TIME STEP   32
    SAVE HEAD FOR ALL LAYERS
    SAVE DRAWDOWN FOR ALL LAYERS
    SAVE BUDGET
    PRINT HEAD FOR ALL LAYERS
    PRINT BUDGET
1
              HEAD IN LAYER   1 AT END OF TIME STEP  32 IN STRESS PERIOD    3
  ---------------------------------------------------------------------------

            1           2           3           4           5           6           7           8           9          10
           11          12          13          14          15          16          17          18          19          20
 ........................................................................................................................
   1    0.000       0.000       0.000       0.000       0.000       7.334       7.330       7.353       7.367       7.380    
        7.405       7.501       7.697       7.370       7.683       7.470       7.383       7.372       0.000       0.000    
   2    0.000       0.000       0.000       0.000       7.399       7.422       7.400       7.455       7.453       7.458    
        7.476       7.548       7.702       7.367       7.652       7.439       7.374       7.371       0.000       0.000    
   3    0.000       0.000       0.000       7.492       7.540       7.603       7.625       7.639       7.630       7.625    
        7.631       7.670       7.761       7.364       7.604       7.364       7.361       7.372       0.000       0.000    
   4    0.000       0.000       7.693       7.674       7.696       7.367       7.373       7.368       7.363       7.364    
        7.367       7.391       7.811       7.363       7.593       7.419       7.379       7.384       0.000       0.000    
   5    0.000       0.000       7.709       7.503       7.366       7.383       7.733       7.690       7.655       7.666    
        7.706       7.370       7.363       7.380       7.574       7.433       7.394       7.401       7.417       0.000    
   6    0.000       7.359       7.362       7.368       7.567       7.701       7.599       7.522       7.494       7.498    
        7.547       7.601       7.619       7.598       7.490       7.411       7.398       7.406       7.419       0.000    
   7    0.000       7.650       7.646       7.641       7.631       7.542       7.464       7.429       7.414       7.406    
        7.416       7.455       7.470       7.460       7.417       7.394       7.391       7.397       0.000       0.000    
   8    0.000       7.515       7.506       7.502       7.484       7.449       7.425       7.410       7.396       7.377    
        7.358       7.382       7.397       7.399       7.389       7.379       7.374       7.381       0.000       0.000    
   9    0.000       0.000       7.443       7.442       7.438       7.431       7.423       7.412       7.394       7.361    
        7.288       7.353       7.377       7.383       7.376       7.359       7.337       7.360       7.378       7.390    
  10    0.000       0.000       7.433       7.434       7.434       7.432       7.426       7.415       7.397       7.370    
        7.340       7.359       7.375       7.379       7.367       7.332       7.250       7.334       7.371       7.388    

 HEAD WILL BE SAVED ON UNIT   51 AT END OF TIME STEP   32, STRESS PERIOD    3

 DRAWDOWN WILL BE SAVED ON UNIT   52 AT END OF TIME STEP   32, STRESS PERIOD    3
1
  VOLUMETRIC BUDGET FOR ENTIRE MODEL AT END OF TIME STEP   32, STRESS PERIOD   3
  ------------------------------------------------------------------------------

     CUMULATIVE VOLUMES      L**3       RATES FOR THIS TIME STEP      L**3/T
     ------------------                 ------------------------

           IN:                                      IN:
           ---                                      ---
             STORAGE =      893746.6875               STORAGE =        4815.3550
       CONSTANT HEAD =           0.0000         CONSTANT HEAD =           0.0000
               WELLS =           0.0000                 WELLS =           0.0000
       RIVER LEAKAGE =     1458095.5000         RIVER LEAKAGE =           0.0000
            RECHARGE =       67841.6328              RECHARGE =         343.4863

            TOTAL IN =     2419684.0000              TOTAL IN =        5158.8413

          OUT:                                     OUT:
          ----                                     ----
             STORAGE =     1549811.2500               STORAGE =        1148.2015
       CONSTANT HEAD =           0.0000         CONSTANT HEAD =           0.0000
               WELLS =       27203.1543                 WELLS =         223.5936
       RIVER LEAKAGE =      842804.0000         RIVER LEAKAGE =        3786.1042
            RECHARGE =           0.0000              RECHARGE =           0.0000

           TOTAL OUT =     2419818.5000             TOTAL OUT =        5157.8994

            IN - OUT =        -134.5000              IN - OUT =           0.9419

 PERCENT DISCREPANCY =          -0.01     PERCENT DISCREPANCY =           0.02






         TIME SUMMARY AT END OF TIME STEP   32 IN STRESS PERIOD    3
                    SECONDS     MINUTES      HOURS       DAYS        YEARS
                    -----------------------------------------------------------
   TIME STEP LENGTH  86400.      1440.0      24.000      1.0000     2.73785E-03
 STRESS PERIOD TIME 2.76480E+06  46080.      768.00      32.000     8.76112E-02
         TOTAL TIME 1.14912E+07 1.91520E+05  3192.0      133.00     0.36413    
1

 SOLVING FOR HEAD 

    ------------------------------------------------
       NWT REQUIRED            3 OUTER ITERATIONS 
       AND A TOTAL OF          3 INNER ITERATIONS.
    ------------------------------------------------

 OUTPUT CONTROL FOR STRESS PERIOD    3   TIME STEP   33
    SAVE HEAD FOR ALL LAYERS
    SAVE DRAWDOWN FOR ALL LAYERS
    SAVE BUDGET
    PRINT HEAD FOR ALL LAYERS
    PRINT BUDGET
1
              HEAD IN LAYER   1 AT END OF TIME STEP  33 IN STRESS PERIOD    3
  ---------------------------------------------------------------------------

            1           2           3           4           5           6           7           8           9          10
           11          12          13          14          15          16          17          18          19          20
 ........................................................................................................................
   1    0.000       0.000       0.000       0.000       0.000       7.334       7.330       7.354       7.367       7.381    
        7.406       7.502       7.693       7.370       7.679       7.471       7.383       7.373       0.000       0.000    
   2    0.000       0.000       0.000       0.000       7.400       7.423       7.400       7.456       7.454       7.459    
        7.477       7.549       7.699       7.366       7.649       7.439       7.374       7.371       0.000       0.000    
   3    0.000       0.000       0.000       7.494       7.540       7.600       7.620       7.635       7.628       7.622    
        7.629       7.668       7.758       7.364       7.602       7.364       7.361       7.372       0.000       0.000    
   4    0.000       0.000       7.693       7.672       7.691       7.367       7.373       7.368       7.363       7.364    
        7.367       7.390       7.804       7.362       7.591       7.420       7.379       7.384       0.000       0.000    
   5    0.000       0.000       7.700       7.496       7.365       7.382       7.728       7.687       7.652       7.663    
        7.702       7.369       7.363       7.378       7.572       7.433       7.394       7.401       7.417       0.000    
   6    0.000       7.359       7.362       7.367       7.559       7.697       7.599       7.523       7.495       7.499    
        7.547       7.599       7.617       7.596       7.491       7.412       7.398       7.406       7.419       0.000    
   7    0.000       7.648       7.644       7.638       7.630       7.543       7.465       7.430       7.414       7.407    
        7.417       7.455       7.470       7.461       7.417       7.394       7.391       7.397       0.000       0.000    
   8    0.000       7.516       7.507       7.502       7.484       7.449       7.425       7.411       7.396       7.377    
        7.358       7.382       7.397       7.399       7.389       7.379       7.374       7.380       0.000       0.000    
   9    0.000       0.000       7.443       7.443       7.439       7.431       7.423       7.412       7.394       7.361    
        7.288       7.353       7.377       7.383       7.376       7.359       7.337       7.360       7.378       7.390    
  10    0.000       0.000       7.433       7.434       7.434       7.432       7.426       7.415       7.397       7.370    
        7.340       7.359       7.375       7.379       7.367       7.332       7.250       7.334       7.371       7.388    

 HEAD WILL BE SAVED ON UNIT   51 AT END OF TIME STEP   33, STRESS PERIOD    3

 DRAWDOWN WILL BE SAVED ON UNIT   52 AT END OF TIME STEP   33, STRESS PERIOD    3
1
  VOLUMETRIC BUDGET FOR ENTIRE MODEL AT END OF TIME STEP   33, STRESS PERIOD   3
  ------------------------------------------------------------------------------

     CUMULATIVE VOLUMES      L**3       RATES FOR THIS TIME STEP      L**3/T
     ------------------                 ------------------------

           IN:                                      IN:
           ---                                      ---
             STORAGE =      898440.8125               STORAGE =        4694.1401
       CONSTANT HEAD =           0.0000         CONSTANT HEAD =           0.0000
               WELLS =           0.0000                 WELLS =           0.0000
       RIVER LEAKAGE =     1458095.5000         RIVER LEAKAGE =           0.0000
            RECHARGE =       68185.1172              RECHARGE =         343.4863

            TOTAL IN =     2424721.2500              TOTAL IN =        5037.6265

          OUT:                                     OUT:
          ----                                     ----
             STORAGE =     1550932.3750               STORAGE =        1121.1825
       CONSTANT HEAD =           0.0000         CONSTANT HEAD =           0.0000
               WELLS =       27426.7480                 WELLS =         223.5936
       RIVER LEAKAGE =      846495.9375         RIVER LEAKAGE =        3691.9341
            RECHARGE =           0.0000              RECHARGE =           0.0000

           TOTAL OUT =     2424855.0000             TOTAL OUT =        5036.7100

            IN - OUT =        -133.7500              IN - OUT =           0.9165

 PERCENT DISCREPANCY =          -0.01     PERCENT DISCREPANCY =           0.02






         TIME SUMMARY AT END OF TIME STEP   33 IN STRESS PERIOD    3
                    SECONDS     MINUTES      HOURS       DAYS        YEARS
                    -----------------------------------------------------------
   TIME STEP LENGTH  86400.      1440.0      24.000      1.0000     2.73785E-03
 STRESS PERIOD TIME 2.85120E+06  47520.      792.00      33.000     9.03491E-02
         TOTAL TIME 1.15776E+07 1.92960E+05  3216.0      134.00     0.36687    
1

 SOLVING FOR HEAD 

    ------------------------------------------------
       NWT REQUIRED            3 OUTER ITERATIONS 
       AND A TOTAL OF          3 INNER ITERATIONS.
    ------------------------------------------------

 OUTPUT CONTROL FOR STRESS PERIOD    3   TIME STEP   34
    SAVE HEAD FOR ALL LAYERS
    SAVE DRAWDOWN FOR ALL LAYERS
    SAVE BUDGET
    PRINT HEAD FOR ALL LAYERS
    PRINT BUDGET
1
              HEAD IN LAYER   1 AT END OF TIME STEP  34 IN STRESS PERIOD    3
  ---------------------------------------------------------------------------

            1           2           3           4           5           6           7           8           9          10
           11          12          13          14          15          16          17          18          19          20
 ........................................................................................................................
   1    0.000       0.000       0.000       0.000       0.000       7.335       7.331       7.354       7.368       7.381    
        7.407       7.503       7.690       7.370       7.676       7.471       7.384       7.373       0.000       0.000    
   2    0.000       0.000       0.000       0.000       7.401       7.423       7.401       7.456       7.454       7.459    
        7.477       7.550       7.696       7.366       7.646       7.440       7.374       7.371       0.000       0.000    
   3    0.000       0.000       0.000       7.495       7.540       7.597       7.616       7.632       7.625       7.620    
        7.627       7.666       7.756       7.364       7.600       7.364       7.362       7.372       0.000       0.000    
   4    0.000       0.000       7.693       7.670       7.686       7.367       7.373       7.368       7.363       7.364    
        7.367       7.388       7.797       7.362       7.589       7.420       7.379       7.384       0.000       0.000    
   5    0.000       0.000       7.691       7.489       7.365       7.381       7.722       7.684       7.650       7.661    
        7.697       7.369       7.363       7.377       7.570       7.433       7.395       7.401       7.417       0.000    
   6    0.000       7.359       7.361       7.367       7.551       7.693       7.599       7.524       7.495       7.500    
        7.548       7.596       7.614       7.593       7.491       7.412       7.398       7.406       7.419       0.000    
   7    0.000       7.645       7.641       7.636       7.628       7.543       7.466       7.430       7.415       7.407    
        7.418       7.455       7.471       7.461       7.418       7.394       7.391       7.397       0.000       0.000    
   8    0.000       7.517       7.507       7.502       7.485       7.450       7.425       7.411       7.396       7.377    
        7.358       7.382       7.397       7.400       7.389       7.379       7.374       7.380       0.000       0.000    
   9    0.000       0.000       7.443       7.443       7.439       7.431       7.423       7.412       7.394       7.361    
        7.288       7.353       7.377       7.383       7.376       7.359       7.337       7.360       7.378       7.390    
  10    0.000       0.000       7.434       7.434       7.434       7.432       7.426       7.415       7.397       7.370    
        7.340       7.359       7.375       7.379       7.367       7.332       7.250       7.334       7.371       7.388    

 HEAD WILL BE SAVED ON UNIT   51 AT END OF TIME STEP   34, STRESS PERIOD    3

 DRAWDOWN WILL BE SAVED ON UNIT   52 AT END OF TIME STEP   34, STRESS PERIOD    3
1
  VOLUMETRIC BUDGET FOR ENTIRE MODEL AT END OF TIME STEP   34, STRESS PERIOD   3
  ------------------------------------------------------------------------------

     CUMULATIVE VOLUMES      L**3       RATES FOR THIS TIME STEP      L**3/T
     ------------------                 ------------------------

           IN:                                      IN:
           ---                                      ---
             STORAGE =      903023.0625               STORAGE =        4582.2246
       CONSTANT HEAD =           0.0000         CONSTANT HEAD =           0.0000
               WELLS =           0.0000                 WELLS =           0.0000
       RIVER LEAKAGE =     1458095.5000         RIVER LEAKAGE =           0.0000
            RECHARGE =       68528.6016              RECHARGE =         343.4863

            TOTAL IN =     2429647.0000              TOTAL IN =        4925.7109

          OUT:                                     OUT:
          ----                                     ----
             STORAGE =     1552029.2500               STORAGE =        1096.9064
       CONSTANT HEAD =           0.0000         CONSTANT HEAD =           0.0000
               WELLS =       27650.3418                 WELLS =         223.5936
       RIVER LEAKAGE =      850100.2500         RIVER LEAKAGE =        3604.3181
            RECHARGE =           0.0000              RECHARGE =           0.0000

           TOTAL OUT =     2429780.0000             TOTAL OUT =        4924.8184

            IN - OUT =        -133.0000              IN - OUT =           0.8926

 PERCENT DISCREPANCY =          -0.01     PERCENT DISCREPANCY =           0.02






         TIME SUMMARY AT END OF TIME STEP   34 IN STRESS PERIOD    3
                    SECONDS     MINUTES      HOURS       DAYS        YEARS
                    -----------------------------------------------------------
   TIME STEP LENGTH  86400.      1440.0      24.000      1.0000     2.73785E-03
 STRESS PERIOD TIME 2.93760E+06  48960.      816.00      34.000     9.30869E-02
         TOTAL TIME 1.16640E+07 1.94400E+05  3240.0      135.00     0.36961    
1

 SOLVING FOR HEAD 

    ------------------------------------------------
       NWT REQUIRED            3 OUTER ITERATIONS 
       AND A TOTAL OF          3 INNER ITERATIONS.
    ------------------------------------------------

 OUTPUT CONTROL FOR STRESS PERIOD    3   TIME STEP   35
    SAVE HEAD FOR ALL LAYERS
    SAVE DRAWDOWN FOR ALL LAYERS
    SAVE BUDGET
    PRINT HEAD FOR ALL LAYERS
    PRINT BUDGET
1
              HEAD IN LAYER   1 AT END OF TIME STEP  35 IN STRESS PERIOD    3
  ---------------------------------------------------------------------------

            1           2           3           4           5           6           7           8           9          10
           11          12          13          14          15          16          17          18          19          20
 ........................................................................................................................
   1    0.000       0.000       0.000       0.000       0.000       7.335       7.332       7.355       7.369       7.382    
        7.408       7.504       7.686       7.370       7.672       7.472       7.384       7.373       0.000       0.000    
   2    0.000       0.000       0.000       0.000       7.402       7.424       7.401       7.456       7.455       7.460    
        7.478       7.551       7.694       7.366       7.643       7.440       7.375       7.371       0.000       0.000    
   3    0.000       0.000       0.000       7.496       7.541       7.594       7.612       7.628       7.623       7.618    
        7.625       7.664       7.754       7.363       7.598       7.365       7.362       7.372       0.000       0.000    
   4    0.000       0.000       7.693       7.669       7.682       7.367       7.372       7.368       7.363       7.364    
        7.367       7.387       7.790       7.362       7.587       7.421       7.380       7.384       0.000       0.000    
   5    0.000       0.000       7.682       7.483       7.365       7.380       7.717       7.681       7.648       7.658    
        7.693       7.369       7.363       7.376       7.568       7.434       7.395       7.401       7.417       0.000    
   6    0.000       7.359       7.361       7.367       7.543       7.689       7.599       7.524       7.496       7.500    
        7.548       7.594       7.612       7.591       7.491       7.413       7.398       7.406       7.419       0.000    
   7    0.000       7.643       7.639       7.633       7.626       7.543       7.467       7.431       7.415       7.408    
        7.418       7.456       7.471       7.461       7.418       7.394       7.391       7.397       0.000       0.000    
   8    0.000       7.518       7.508       7.503       7.486       7.451       7.426       7.411       7.396       7.377    
        7.358       7.382       7.398       7.400       7.389       7.379       7.374       7.380       0.000       0.000    
   9    0.000       0.000       7.444       7.443       7.439       7.431       7.423       7.412       7.394       7.361    
        7.288       7.353       7.377       7.383       7.376       7.359       7.337       7.360       7.378       7.390    
  10    0.000       0.000       7.434       7.434       7.434       7.432       7.426       7.415       7.397       7.370    
        7.340       7.359       7.375       7.379       7.367       7.332       7.249       7.334       7.371       7.388    

 HEAD WILL BE SAVED ON UNIT   51 AT END OF TIME STEP   35, STRESS PERIOD    3

 DRAWDOWN WILL BE SAVED ON UNIT   52 AT END OF TIME STEP   35, STRESS PERIOD    3
1
  VOLUMETRIC BUDGET FOR ENTIRE MODEL AT END OF TIME STEP   35, STRESS PERIOD   3
  ------------------------------------------------------------------------------

     CUMULATIVE VOLUMES      L**3       RATES FOR THIS TIME STEP      L**3/T
     ------------------                 ------------------------

           IN:                                      IN:
           ---                                      ---
             STORAGE =      907499.5625               STORAGE =        4476.5068
       CONSTANT HEAD =           0.0000         CONSTANT HEAD =           0.0000
               WELLS =           0.0000                 WELLS =           0.0000
       RIVER LEAKAGE =     1458095.5000         RIVER LEAKAGE =           0.0000
            RECHARGE =       68872.0859              RECHARGE =         343.4863

            TOTAL IN =     2434467.0000              TOTAL IN =        4819.9932

          OUT:                                     OUT:
          ----                                     ----
             STORAGE =     1553102.3750               STORAGE =        1073.0770
       CONSTANT HEAD =           0.0000         CONSTANT HEAD =           0.0000
               WELLS =       27873.9355                 WELLS =         223.5936
       RIVER LEAKAGE =      853622.6875         RIVER LEAKAGE =        3522.4514
            RECHARGE =           0.0000              RECHARGE =           0.0000

           TOTAL OUT =     2434599.0000             TOTAL OUT =        4819.1221

            IN - OUT =        -132.0000              IN - OUT =           0.8711

 PERCENT DISCREPANCY =          -0.01     PERCENT DISCREPANCY =           0.02






         TIME SUMMARY AT END OF TIME STEP   35 IN STRESS PERIOD    3
                    SECONDS     MINUTES      HOURS       DAYS        YEARS
                    -----------------------------------------------------------
   TIME STEP LENGTH  86400.      1440.0      24.000      1.0000     2.73785E-03
 STRESS PERIOD TIME 3.02400E+06  50400.      840.00      35.000     9.58248E-02
         TOTAL TIME 1.17504E+07 1.95840E+05  3264.0      136.00     0.37235    
1

 SOLVING FOR HEAD 

    ------------------------------------------------
       NWT REQUIRED            3 OUTER ITERATIONS 
       AND A TOTAL OF          3 INNER ITERATIONS.
    ------------------------------------------------

 OUTPUT CONTROL FOR STRESS PERIOD    3   TIME STEP   36
    SAVE HEAD FOR ALL LAYERS
    SAVE DRAWDOWN FOR ALL LAYERS
    SAVE BUDGET
    PRINT HEAD FOR ALL LAYERS
    PRINT BUDGET
1
              HEAD IN LAYER   1 AT END OF TIME STEP  36 IN STRESS PERIOD    3
  ---------------------------------------------------------------------------

            1           2           3           4           5           6           7           8           9          10
           11          12          13          14          15          16          17          18          19          20
 ........................................................................................................................
   1    0.000       0.000       0.000       0.000       0.000       7.336       7.332       7.355       7.369       7.382    
        7.408       7.504       7.682       7.369       7.668       7.472       7.385       7.373       0.000       0.000    
   2    0.000       0.000       0.000       0.000       7.403       7.424       7.401       7.457       7.455       7.461    
        7.479       7.551       7.691       7.366       7.640       7.441       7.375       7.371       0.000       0.000    
   3    0.000       0.000       0.000       7.497       7.541       7.592       7.608       7.625       7.620       7.615    
        7.623       7.662       7.751       7.363       7.596       7.365       7.362       7.372       0.000       0.000    
   4    0.000       0.000       7.693       7.667       7.678       7.367       7.372       7.368       7.363       7.364    
        7.366       7.386       7.784       7.362       7.585       7.421       7.380       7.384       0.000       0.000    
   5    0.000       0.000       7.673       7.477       7.364       7.379       7.712       7.678       7.646       7.656    
        7.688       7.368       7.363       7.375       7.566       7.434       7.395       7.401       7.417       0.000    
   6    0.000       7.359       7.361       7.366       7.536       7.686       7.599       7.525       7.496       7.501    
        7.548       7.592       7.609       7.589       7.491       7.413       7.398       7.406       7.419       0.000    
   7    0.000       7.640       7.637       7.631       7.625       7.544       7.467       7.432       7.416       7.408    
        7.419       7.456       7.471       7.462       7.418       7.394       7.391       7.397       0.000       0.000    
   8    0.000       7.518       7.508       7.503       7.486       7.451       7.426       7.411       7.396       7.377    
        7.359       7.383       7.398       7.400       7.389       7.379       7.374       7.380       0.000       0.000    
   9    0.000       0.000       7.444       7.444       7.440       7.431       7.423       7.412       7.394       7.361    
        7.288       7.353       7.377       7.383       7.376       7.359       7.337       7.360       7.378       7.390    
  10    0.000       0.000       7.434       7.434       7.434       7.432       7.426       7.415       7.397       7.370    
        7.340       7.359       7.375       7.379       7.367       7.332       7.249       7.334       7.371       7.388    

 HEAD WILL BE SAVED ON UNIT   51 AT END OF TIME STEP   36, STRESS PERIOD    3

 DRAWDOWN WILL BE SAVED ON UNIT   52 AT END OF TIME STEP   36, STRESS PERIOD    3
1
  VOLUMETRIC BUDGET FOR ENTIRE MODEL AT END OF TIME STEP   36, STRESS PERIOD   3
  ------------------------------------------------------------------------------

     CUMULATIVE VOLUMES      L**3       RATES FOR THIS TIME STEP      L**3/T
     ------------------                 ------------------------

           IN:                                      IN:
           ---                                      ---
             STORAGE =      911875.9375               STORAGE =        4376.3604
       CONSTANT HEAD =           0.0000         CONSTANT HEAD =           0.0000
               WELLS =           0.0000                 WELLS =           0.0000
       RIVER LEAKAGE =     1458095.5000         RIVER LEAKAGE =           0.0000
            RECHARGE =       69215.5703              RECHARGE =         343.4863

            TOTAL IN =     2439187.0000              TOTAL IN =        4719.8467

          OUT:                                     OUT:
          ----                                     ----
             STORAGE =     1554152.1250               STORAGE =        1049.7532
       CONSTANT HEAD =           0.0000         CONSTANT HEAD =           0.0000
               WELLS =       28097.5293                 WELLS =         223.5936
       RIVER LEAKAGE =      857068.3125         RIVER LEAKAGE =        3445.6497
            RECHARGE =           0.0000              RECHARGE =           0.0000

           TOTAL OUT =     2439318.0000             TOTAL OUT =        4718.9966

            IN - OUT =        -131.0000              IN - OUT =           0.8501

 PERCENT DISCREPANCY =          -0.01     PERCENT DISCREPANCY =           0.02






         TIME SUMMARY AT END OF TIME STEP   36 IN STRESS PERIOD    3
                    SECONDS     MINUTES      HOURS       DAYS        YEARS
                    -----------------------------------------------------------
   TIME STEP LENGTH  86400.      1440.0      24.000      1.0000     2.73785E-03
 STRESS PERIOD TIME 3.11040E+06  51840.      864.00      36.000     9.85626E-02
         TOTAL TIME 1.18368E+07 1.97280E+05  3288.0      137.00     0.37509    
1

 SOLVING FOR HEAD 

    ------------------------------------------------
       NWT REQUIRED            3 OUTER ITERATIONS 
       AND A TOTAL OF          3 INNER ITERATIONS.
    ------------------------------------------------

 OUTPUT CONTROL FOR STRESS PERIOD    3   TIME STEP   37
    SAVE HEAD FOR ALL LAYERS
    SAVE DRAWDOWN FOR ALL LAYERS
    SAVE BUDGET
    PRINT HEAD FOR ALL LAYERS
    PRINT BUDGET
1
              HEAD IN LAYER   1 AT END OF TIME STEP  37 IN STRESS PERIOD    3
  ---------------------------------------------------------------------------

            1           2           3           4           5           6           7           8           9          10
           11          12          13          14          15          16          17          18          19          20
 ........................................................................................................................
   1    0.000       0.000       0.000       0.000       0.000       7.336       7.333       7.356       7.370       7.383    
        7.409       7.505       7.679       7.369       7.664       7.473       7.385       7.373       0.000       0.000    
   2    0.000       0.000       0.000       0.000       7.404       7.424       7.401       7.457       7.456       7.461    
        7.480       7.552       7.688       7.366       7.637       7.441       7.375       7.371       0.000       0.000    
   3    0.000       0.000       0.000       7.499       7.541       7.589       7.605       7.622       7.618       7.613    
        7.621       7.660       7.749       7.363       7.594       7.366       7.363       7.372       0.000       0.000    
   4    0.000       0.000       7.692       7.665       7.673       7.366       7.372       7.368       7.363       7.364    
        7.366       7.385       7.777       7.362       7.583       7.421       7.380       7.384       0.000       0.000    
   5    0.000       0.000       7.665       7.472       7.364       7.379       7.706       7.675       7.643       7.653    
        7.684       7.368       7.363       7.374       7.564       7.434       7.395       7.401       7.417       0.000    
   6    0.000       7.359       7.361       7.366       7.530       7.682       7.599       7.526       7.497       7.501    
        7.548       7.590       7.607       7.587       7.491       7.413       7.398       7.406       7.419       0.000    
   7    0.000       7.638       7.634       7.629       7.623       7.544       7.468       7.432       7.416       7.409    
        7.419       7.456       7.472       7.462       7.419       7.394       7.391       7.397       0.000       0.000    
   8    0.000       7.519       7.509       7.504       7.487       7.452       7.426       7.411       7.397       7.377    
        7.359       7.383       7.398       7.400       7.390       7.379       7.374       7.380       0.000       0.000    
   9    0.000       0.000       7.445       7.444       7.440       7.431       7.423       7.412       7.394       7.361    
        7.288       7.353       7.377       7.383       7.376       7.359       7.337       7.360       7.378       7.390    
  10    0.000       0.000       7.434       7.435       7.434       7.432       7.426       7.415       7.397       7.370    
        7.340       7.359       7.375       7.379       7.367       7.332       7.249       7.334       7.371       7.388    

 HEAD WILL BE SAVED ON UNIT   51 AT END OF TIME STEP   37, STRESS PERIOD    3

 DRAWDOWN WILL BE SAVED ON UNIT   52 AT END OF TIME STEP   37, STRESS PERIOD    3
1
  VOLUMETRIC BUDGET FOR ENTIRE MODEL AT END OF TIME STEP   37, STRESS PERIOD   3
  ------------------------------------------------------------------------------

     CUMULATIVE VOLUMES      L**3       RATES FOR THIS TIME STEP      L**3/T
     ------------------                 ------------------------

           IN:                                      IN:
           ---                                      ---
             STORAGE =      916158.5625               STORAGE =        4282.5952
       CONSTANT HEAD =           0.0000         CONSTANT HEAD =           0.0000
               WELLS =           0.0000                 WELLS =           0.0000
       RIVER LEAKAGE =     1458095.5000         RIVER LEAKAGE =           0.0000
            RECHARGE =       69559.0547              RECHARGE =         343.4863

            TOTAL IN =     2443813.0000              TOTAL IN =        4626.0815

          OUT:                                     OUT:
          ----                                     ----
             STORAGE =     1555180.5000               STORAGE =        1028.3125
       CONSTANT HEAD =           0.0000         CONSTANT HEAD =           0.0000
               WELLS =       28321.1230                 WELLS =         223.5936
       RIVER LEAKAGE =      860441.6875         RIVER LEAKAGE =        3373.3440
            RECHARGE =           0.0000              RECHARGE =           0.0000

           TOTAL OUT =     2443943.2500             TOTAL OUT =        4625.2500

            IN - OUT =        -130.2500              IN - OUT =           0.8315

 PERCENT DISCREPANCY =          -0.01     PERCENT DISCREPANCY =           0.02






         TIME SUMMARY AT END OF TIME STEP   37 IN STRESS PERIOD    3
                    SECONDS     MINUTES      HOURS       DAYS        YEARS
                    -----------------------------------------------------------
   TIME STEP LENGTH  86400.      1440.0      24.000      1.0000     2.73785E-03
 STRESS PERIOD TIME 3.19680E+06  53280.      888.00      37.000     0.10130    
         TOTAL TIME 1.19232E+07 1.98720E+05  3312.0      138.00     0.37782    
1

 SOLVING FOR HEAD 

    ------------------------------------------------
       NWT REQUIRED            3 OUTER ITERATIONS 
       AND A TOTAL OF          3 INNER ITERATIONS.
    ------------------------------------------------

 OUTPUT CONTROL FOR STRESS PERIOD    3   TIME STEP   38
    SAVE HEAD FOR ALL LAYERS
    SAVE DRAWDOWN FOR ALL LAYERS
    SAVE BUDGET
    PRINT HEAD FOR ALL LAYERS
    PRINT BUDGET
1
              HEAD IN LAYER   1 AT END OF TIME STEP  38 IN STRESS PERIOD    3
  ---------------------------------------------------------------------------

            1           2           3           4           5           6           7           8           9          10
           11          12          13          14          15          16          17          18          19          20
 ........................................................................................................................
   1    0.000       0.000       0.000       0.000       0.000       7.337       7.333       7.357       7.370       7.383    
        7.410       7.506       7.675       7.369       7.661       7.473       7.385       7.373       0.000       0.000    
   2    0.000       0.000       0.000       0.000       7.405       7.425       7.401       7.457       7.456       7.462    
        7.480       7.553       7.686       7.366       7.634       7.442       7.376       7.371       0.000       0.000    
   3    0.000       0.000       0.000       7.500       7.541       7.586       7.601       7.618       7.616       7.611    
        7.619       7.659       7.746       7.363       7.592       7.366       7.363       7.372       0.000       0.000    
   4    0.000       0.000       7.692       7.663       7.669       7.366       7.371       7.367       7.363       7.364    
        7.366       7.384       7.771       7.362       7.581       7.422       7.380       7.384       0.000       0.000    
   5    0.000       0.000       7.657       7.466       7.364       7.378       7.701       7.672       7.641       7.651    
        7.680       7.368       7.363       7.374       7.562       7.435       7.395       7.401       7.417       0.000    
   6    0.000       7.359       7.361       7.366       7.523       7.678       7.599       7.526       7.498       7.502    
        7.548       7.588       7.605       7.584       7.491       7.414       7.398       7.406       7.419       0.000    
   7    0.000       7.636       7.632       7.627       7.621       7.544       7.469       7.433       7.416       7.409    
        7.420       7.457       7.472       7.462       7.419       7.395       7.391       7.397       0.000       0.000    
   8    0.000       7.520       7.509       7.504       7.487       7.452       7.427       7.411       7.397       7.378    
        7.359       7.383       7.399       7.401       7.390       7.379       7.374       7.380       0.000       0.000    
   9    0.000       0.000       7.445       7.444       7.440       7.432       7.423       7.412       7.394       7.361    
        7.288       7.353       7.377       7.383       7.376       7.359       7.337       7.360       7.378       7.390    
  10    0.000       0.000       7.434       7.435       7.434       7.432       7.426       7.415       7.397       7.370    
        7.340       7.359       7.375       7.379       7.367       7.332       7.249       7.334       7.371       7.388    

 HEAD WILL BE SAVED ON UNIT   51 AT END OF TIME STEP   38, STRESS PERIOD    3

 DRAWDOWN WILL BE SAVED ON UNIT   52 AT END OF TIME STEP   38, STRESS PERIOD    3
1
  VOLUMETRIC BUDGET FOR ENTIRE MODEL AT END OF TIME STEP   38, STRESS PERIOD   3
  ------------------------------------------------------------------------------

     CUMULATIVE VOLUMES      L**3       RATES FOR THIS TIME STEP      L**3/T
     ------------------                 ------------------------

           IN:                                      IN:
           ---                                      ---
             STORAGE =      920351.8125               STORAGE =        4193.2275
       CONSTANT HEAD =           0.0000         CONSTANT HEAD =           0.0000
               WELLS =           0.0000                 WELLS =           0.0000
       RIVER LEAKAGE =     1458095.5000         RIVER LEAKAGE =           0.0000
            RECHARGE =       69902.5391              RECHARGE =         343.4863

            TOTAL IN =     2448349.7500              TOTAL IN =        4536.7139

          OUT:                                     OUT:
          ----                                     ----
             STORAGE =     1556187.7500               STORAGE =        1007.2425
       CONSTANT HEAD =           0.0000         CONSTANT HEAD =           0.0000
               WELLS =       28544.7168                 WELLS =         223.5936
       RIVER LEAKAGE =      863746.7500         RIVER LEAKAGE =        3305.0647
            RECHARGE =           0.0000              RECHARGE =           0.0000

           TOTAL OUT =     2448479.2500             TOTAL OUT =        4535.9009

            IN - OUT =        -129.5000              IN - OUT =           0.8130

 PERCENT DISCREPANCY =          -0.01     PERCENT DISCREPANCY =           0.02






         TIME SUMMARY AT END OF TIME STEP   38 IN STRESS PERIOD    3
                    SECONDS     MINUTES      HOURS       DAYS        YEARS
                    -----------------------------------------------------------
   TIME STEP LENGTH  86400.      1440.0      24.000      1.0000     2.73785E-03
 STRESS PERIOD TIME 3.28320E+06  54720.      912.00      38.000     0.10404    
         TOTAL TIME 1.20096E+07 2.00160E+05  3336.0      139.00     0.38056    
1

 SOLVING FOR HEAD 

    ------------------------------------------------
       NWT REQUIRED            3 OUTER ITERATIONS 
       AND A TOTAL OF          3 INNER ITERATIONS.
    ------------------------------------------------

 OUTPUT CONTROL FOR STRESS PERIOD    3   TIME STEP   39
    SAVE HEAD FOR ALL LAYERS
    SAVE DRAWDOWN FOR ALL LAYERS
    SAVE BUDGET
    PRINT HEAD FOR ALL LAYERS
    PRINT BUDGET
1
              HEAD IN LAYER   1 AT END OF TIME STEP  39 IN STRESS PERIOD    3
  ---------------------------------------------------------------------------

            1           2           3           4           5           6           7           8           9          10
           11          12          13          14          15          16          17          18          19          20
 ........................................................................................................................
   1    0.000       0.000       0.000       0.000       0.000       7.338       7.334       7.357       7.371       7.384    
        7.411       7.506       7.672       7.369       7.657       7.473       7.386       7.373       0.000       0.000    
   2    0.000       0.000       0.000       0.000       7.406       7.425       7.401       7.458       7.457       7.462    
        7.481       7.553       7.683       7.366       7.631       7.442       7.376       7.371       0.000       0.000    
   3    0.000       0.000       0.000       7.501       7.541       7.584       7.597       7.615       7.613       7.609    
        7.617       7.657       7.744       7.363       7.590       7.367       7.363       7.372       0.000       0.000    
   4    0.000       0.000       7.692       7.661       7.665       7.366       7.371       7.367       7.363       7.364    
        7.366       7.383       7.765       7.362       7.580       7.422       7.381       7.384       0.000       0.000    
   5    0.000       0.000       7.649       7.462       7.363       7.378       7.696       7.669       7.639       7.649    
        7.676       7.367       7.362       7.373       7.561       7.435       7.395       7.401       7.417       0.000    
   6    0.000       7.359       7.361       7.365       7.517       7.675       7.599       7.527       7.498       7.503    
        7.548       7.586       7.603       7.582       7.492       7.414       7.398       7.406       7.419       0.000    
   7    0.000       7.634       7.630       7.625       7.620       7.545       7.470       7.433       7.417       7.410    
        7.420       7.457       7.472       7.462       7.420       7.395       7.391       7.397       0.000       0.000    
   8    0.000       7.520       7.509       7.504       7.488       7.453       7.427       7.412       7.397       7.378    
        7.359       7.383       7.399       7.401       7.390       7.379       7.374       7.380       0.000       0.000    
   9    0.000       0.000       7.445       7.445       7.440       7.432       7.423       7.412       7.394       7.361    
        7.287       7.354       7.377       7.383       7.376       7.359       7.337       7.360       7.378       7.390    
  10    0.000       0.000       7.434       7.435       7.434       7.432       7.426       7.415       7.397       7.370    
        7.340       7.359       7.375       7.379       7.367       7.332       7.249       7.334       7.371       7.388    

 HEAD WILL BE SAVED ON UNIT   51 AT END OF TIME STEP   39, STRESS PERIOD    3

 DRAWDOWN WILL BE SAVED ON UNIT   52 AT END OF TIME STEP   39, STRESS PERIOD    3
1
  VOLUMETRIC BUDGET FOR ENTIRE MODEL AT END OF TIME STEP   39, STRESS PERIOD   3
  ------------------------------------------------------------------------------

     CUMULATIVE VOLUMES      L**3       RATES FOR THIS TIME STEP      L**3/T
     ------------------                 ------------------------

           IN:                                      IN:
           ---                                      ---
             STORAGE =      924459.6250               STORAGE =        4107.8193
       CONSTANT HEAD =           0.0000         CONSTANT HEAD =           0.0000
               WELLS =           0.0000                 WELLS =           0.0000
       RIVER LEAKAGE =     1458095.5000         RIVER LEAKAGE =           0.0000
            RECHARGE =       70246.0234              RECHARGE =         343.4863

            TOTAL IN =     2452801.0000              TOTAL IN =        4451.3057

          OUT:                                     OUT:
          ----                                     ----
             STORAGE =     1557174.2500               STORAGE =         986.5371
       CONSTANT HEAD =           0.0000         CONSTANT HEAD =           0.0000
               WELLS =       28768.3105                 WELLS =         223.5936
       RIVER LEAKAGE =      866987.1250         RIVER LEAKAGE =        3240.3789
            RECHARGE =           0.0000              RECHARGE =           0.0000

           TOTAL OUT =     2452929.5000             TOTAL OUT =        4450.5098

            IN - OUT =        -128.5000              IN - OUT =           0.7959

 PERCENT DISCREPANCY =          -0.01     PERCENT DISCREPANCY =           0.02






         TIME SUMMARY AT END OF TIME STEP   39 IN STRESS PERIOD    3
                    SECONDS     MINUTES      HOURS       DAYS        YEARS
                    -----------------------------------------------------------
   TIME STEP LENGTH  86400.      1440.0      24.000      1.0000     2.73785E-03
 STRESS PERIOD TIME 3.36960E+06  56160.      936.00      39.000     0.10678    
         TOTAL TIME 1.20960E+07 2.01600E+05  3360.0      140.00     0.38330    
1

 SOLVING FOR HEAD 

    ------------------------------------------------
       NWT REQUIRED            3 OUTER ITERATIONS 
       AND A TOTAL OF          3 INNER ITERATIONS.
    ------------------------------------------------

 OUTPUT CONTROL FOR STRESS PERIOD    3   TIME STEP   40
    SAVE HEAD FOR ALL LAYERS
    SAVE DRAWDOWN FOR ALL LAYERS
    SAVE BUDGET
    PRINT HEAD FOR ALL LAYERS
    PRINT BUDGET
1
              HEAD IN LAYER   1 AT END OF TIME STEP  40 IN STRESS PERIOD    3
  ---------------------------------------------------------------------------

            1           2           3           4           5           6           7           8           9          10
           11          12          13          14          15          16          17          18          19          20
 ........................................................................................................................
   1    0.000       0.000       0.000       0.000       0.000       7.338       7.334       7.358       7.371       7.385    
        7.412       7.507       7.668       7.369       7.653       7.474       7.386       7.373       0.000       0.000    
   2    0.000       0.000       0.000       0.000       7.407       7.425       7.401       7.458       7.457       7.463    
        7.482       7.554       7.681       7.366       7.628       7.442       7.376       7.371       0.000       0.000    
   3    0.000       0.000       0.000       7.502       7.541       7.581       7.594       7.612       7.611       7.607    
        7.615       7.655       7.741       7.363       7.588       7.367       7.364       7.372       0.000       0.000    
   4    0.000       0.000       7.691       7.659       7.661       7.366       7.371       7.367       7.363       7.364    
        7.366       7.383       7.759       7.362       7.578       7.422       7.381       7.384       0.000       0.000    
   5    0.000       0.000       7.642       7.457       7.363       7.377       7.691       7.666       7.637       7.646    
        7.672       7.367       7.362       7.372       7.559       7.435       7.396       7.401       7.417       0.000    
   6    0.000       7.359       7.361       7.365       7.512       7.671       7.599       7.527       7.499       7.503    
        7.548       7.584       7.600       7.580       7.492       7.414       7.398       7.406       7.419       0.000    
   7    0.000       7.631       7.628       7.622       7.618       7.545       7.470       7.434       7.417       7.410    
        7.421       7.457       7.472       7.463       7.420       7.395       7.391       7.397       0.000       0.000    
   8    0.000       7.521       7.510       7.505       7.488       7.453       7.427       7.412       7.397       7.378    
        7.359       7.384       7.399       7.401       7.390       7.379       7.374       7.380       0.000       0.000    
   9    0.000       0.000       7.446       7.445       7.441       7.432       7.423       7.412       7.394       7.361    
        7.287       7.354       7.377       7.384       7.376       7.359       7.337       7.360       7.378       7.390    
  10    0.000       0.000       7.434       7.435       7.434       7.432       7.426       7.415       7.397       7.370    
        7.340       7.359       7.375       7.379       7.367       7.332       7.249       7.334       7.371       7.388    

 HEAD WILL BE SAVED ON UNIT   51 AT END OF TIME STEP   40, STRESS PERIOD    3

 DRAWDOWN WILL BE SAVED ON UNIT   52 AT END OF TIME STEP   40, STRESS PERIOD    3
1
  VOLUMETRIC BUDGET FOR ENTIRE MODEL AT END OF TIME STEP   40, STRESS PERIOD   3
  ------------------------------------------------------------------------------

     CUMULATIVE VOLUMES      L**3       RATES FOR THIS TIME STEP      L**3/T
     ------------------                 ------------------------

           IN:                                      IN:
           ---                                      ---
             STORAGE =      928486.2500               STORAGE =        4026.6497
       CONSTANT HEAD =           0.0000         CONSTANT HEAD =           0.0000
               WELLS =           0.0000                 WELLS =           0.0000
       RIVER LEAKAGE =     1458095.5000         RIVER LEAKAGE =           0.0000
            RECHARGE =       70589.5078              RECHARGE =         343.4863

            TOTAL IN =     2457171.2500              TOTAL IN =        4370.1357

          OUT:                                     OUT:
          ----                                     ----
             STORAGE =     1558141.1250               STORAGE =         966.8265
       CONSTANT HEAD =           0.0000         CONSTANT HEAD =           0.0000
               WELLS =       28991.9043                 WELLS =         223.5936
       RIVER LEAKAGE =      870166.0625         RIVER LEAKAGE =        3178.9358
            RECHARGE =           0.0000              RECHARGE =           0.0000

           TOTAL OUT =     2457299.0000             TOTAL OUT =        4369.3560

            IN - OUT =        -127.7500              IN - OUT =           0.7798

 PERCENT DISCREPANCY =          -0.01     PERCENT DISCREPANCY =           0.02






         TIME SUMMARY AT END OF TIME STEP   40 IN STRESS PERIOD    3
                    SECONDS     MINUTES      HOURS       DAYS        YEARS
                    -----------------------------------------------------------
   TIME STEP LENGTH  86400.      1440.0      24.000      1.0000     2.73785E-03
 STRESS PERIOD TIME 3.45600E+06  57600.      960.00      40.000     0.10951    
         TOTAL TIME 1.21824E+07 2.03040E+05  3384.0      141.00     0.38604    
1

 SOLVING FOR HEAD 

    ------------------------------------------------
       NWT REQUIRED            3 OUTER ITERATIONS 
       AND A TOTAL OF          3 INNER ITERATIONS.
    ------------------------------------------------

 OUTPUT CONTROL FOR STRESS PERIOD    3   TIME STEP   41
    SAVE HEAD FOR ALL LAYERS
    SAVE DRAWDOWN FOR ALL LAYERS
    SAVE BUDGET
    PRINT HEAD FOR ALL LAYERS
    PRINT BUDGET
1
              HEAD IN LAYER   1 AT END OF TIME STEP  41 IN STRESS PERIOD    3
  ---------------------------------------------------------------------------

            1           2           3           4           5           6           7           8           9          10
           11          12          13          14          15          16          17          18          19          20
 ........................................................................................................................
   1    0.000       0.000       0.000       0.000       0.000       7.339       7.335       7.358       7.372       7.385    
        7.412       7.508       7.665       7.368       7.650       7.474       7.386       7.373       0.000       0.000    
   2    0.000       0.000       0.000       0.000       7.408       7.426       7.401       7.458       7.458       7.463    
        7.482       7.555       7.678       7.365       7.626       7.443       7.377       7.371       0.000       0.000    
   3    0.000       0.000       0.000       7.503       7.541       7.578       7.590       7.609       7.609       7.605    
        7.613       7.653       7.739       7.363       7.586       7.367       7.364       7.372       0.000       0.000    
   4    0.000       0.000       7.691       7.657       7.657       7.366       7.371       7.367       7.363       7.363    
        7.366       7.382       7.753       7.362       7.576       7.423       7.381       7.384       0.000       0.000    
   5    0.000       0.000       7.634       7.453       7.363       7.377       7.687       7.663       7.635       7.644    
        7.668       7.367       7.362       7.372       7.557       7.435       7.396       7.401       7.417       0.000    
   6    0.000       7.359       7.361       7.365       7.506       7.668       7.599       7.528       7.499       7.504    
        7.548       7.582       7.598       7.578       7.492       7.415       7.398       7.406       7.419       0.000    
   7    0.000       7.629       7.625       7.620       7.616       7.545       7.471       7.434       7.418       7.411    
        7.422       7.457       7.473       7.463       7.420       7.395       7.391       7.397       0.000       0.000    
   8    0.000       7.522       7.510       7.505       7.488       7.454       7.428       7.412       7.397       7.378    
        7.360       7.384       7.399       7.401       7.390       7.379       7.374       7.380       0.000       0.000    
   9    0.000       0.000       7.446       7.445       7.441       7.432       7.423       7.412       7.394       7.361    
        7.287       7.354       7.378       7.384       7.376       7.359       7.337       7.360       7.378       7.390    
  10    0.000       0.000       7.434       7.435       7.435       7.432       7.426       7.415       7.397       7.370    
        7.340       7.359       7.375       7.379       7.367       7.332       7.249       7.334       7.371       7.388    

 HEAD WILL BE SAVED ON UNIT   51 AT END OF TIME STEP   41, STRESS PERIOD    3

 DRAWDOWN WILL BE SAVED ON UNIT   52 AT END OF TIME STEP   41, STRESS PERIOD    3
1
  VOLUMETRIC BUDGET FOR ENTIRE MODEL AT END OF TIME STEP   41, STRESS PERIOD   3
  ------------------------------------------------------------------------------

     CUMULATIVE VOLUMES      L**3       RATES FOR THIS TIME STEP      L**3/T
     ------------------                 ------------------------

           IN:                                      IN:
           ---                                      ---
             STORAGE =      932437.0625               STORAGE =        3950.8330
       CONSTANT HEAD =           0.0000         CONSTANT HEAD =           0.0000
               WELLS =           0.0000                 WELLS =           0.0000
       RIVER LEAKAGE =     1458095.5000         RIVER LEAKAGE =           0.0000
            RECHARGE =       70932.9922              RECHARGE =         343.4863

            TOTAL IN =     2461465.5000              TOTAL IN =        4294.3193

          OUT:                                     OUT:
          ----                                     ----
             STORAGE =     1559090.6250               STORAGE =         949.5176
       CONSTANT HEAD =           0.0000         CONSTANT HEAD =           0.0000
               WELLS =       29215.4980                 WELLS =         223.5936
       RIVER LEAKAGE =      873286.5000         RIVER LEAKAGE =        3120.4434
            RECHARGE =           0.0000              RECHARGE =           0.0000

           TOTAL OUT =     2461592.5000             TOTAL OUT =        4293.5547

            IN - OUT =        -127.0000              IN - OUT =           0.7646

 PERCENT DISCREPANCY =          -0.01     PERCENT DISCREPANCY =           0.02






         TIME SUMMARY AT END OF TIME STEP   41 IN STRESS PERIOD    3
                    SECONDS     MINUTES      HOURS       DAYS        YEARS
                    -----------------------------------------------------------
   TIME STEP LENGTH  86400.      1440.0      24.000      1.0000     2.73785E-03
 STRESS PERIOD TIME 3.54240E+06  59040.      984.00      41.000     0.11225    
         TOTAL TIME 1.22688E+07 2.04480E+05  3408.0      142.00     0.38877    
1

 SOLVING FOR HEAD 

    ------------------------------------------------
       NWT REQUIRED            3 OUTER ITERATIONS 
       AND A TOTAL OF          3 INNER ITERATIONS.
    ------------------------------------------------

 OUTPUT CONTROL FOR STRESS PERIOD    3   TIME STEP   42
    SAVE HEAD FOR ALL LAYERS
    SAVE DRAWDOWN FOR ALL LAYERS
    SAVE BUDGET
    PRINT HEAD FOR ALL LAYERS
    PRINT BUDGET
1
              HEAD IN LAYER   1 AT END OF TIME STEP  42 IN STRESS PERIOD    3
  ---------------------------------------------------------------------------

            1           2           3           4           5           6           7           8           9          10
           11          12          13          14          15          16          17          18          19          20
 ........................................................................................................................
   1    0.000       0.000       0.000       0.000       0.000       7.339       7.336       7.359       7.372       7.386    
        7.413       7.508       7.662       7.368       7.646       7.474       7.387       7.373       0.000       0.000    
   2    0.000       0.000       0.000       0.000       7.409       7.426       7.401       7.458       7.458       7.464    
        7.483       7.555       7.675       7.365       7.623       7.443       7.377       7.371       0.000       0.000    
   3    0.000       0.000       0.000       7.505       7.541       7.576       7.586       7.606       7.606       7.602    
        7.611       7.651       7.736       7.363       7.584       7.368       7.364       7.372       0.000       0.000    
   4    0.000       0.000       7.690       7.655       7.653       7.365       7.370       7.367       7.363       7.363    
        7.365       7.381       7.747       7.361       7.574       7.423       7.381       7.385       0.000       0.000    
   5    0.000       0.000       7.627       7.449       7.363       7.376       7.682       7.660       7.633       7.642    
        7.664       7.367       7.362       7.372       7.556       7.436       7.396       7.401       7.417       0.000    
   6    0.000       7.359       7.360       7.364       7.501       7.664       7.599       7.528       7.500       7.504    
        7.548       7.580       7.596       7.576       7.492       7.415       7.399       7.406       7.419       0.000    
   7    0.000       7.627       7.623       7.618       7.615       7.545       7.472       7.435       7.418       7.411    
        7.422       7.458       7.473       7.463       7.421       7.395       7.391       7.397       0.000       0.000    
   8    0.000       7.522       7.511       7.505       7.489       7.454       7.428       7.412       7.397       7.378    
        7.360       7.384       7.400       7.402       7.390       7.379       7.374       7.380       0.000       0.000    
   9    0.000       0.000       7.446       7.446       7.441       7.432       7.423       7.412       7.394       7.361    
        7.287       7.354       7.378       7.384       7.376       7.359       7.337       7.360       7.378       7.390    
  10    0.000       0.000       7.435       7.435       7.435       7.432       7.426       7.415       7.397       7.370    
        7.340       7.359       7.375       7.379       7.367       7.332       7.249       7.334       7.371       7.388    

 HEAD WILL BE SAVED ON UNIT   51 AT END OF TIME STEP   42, STRESS PERIOD    3

 DRAWDOWN WILL BE SAVED ON UNIT   52 AT END OF TIME STEP   42, STRESS PERIOD    3
1
  VOLUMETRIC BUDGET FOR ENTIRE MODEL AT END OF TIME STEP   42, STRESS PERIOD   3
  ------------------------------------------------------------------------------

     CUMULATIVE VOLUMES      L**3       RATES FOR THIS TIME STEP      L**3/T
     ------------------                 ------------------------

           IN:                                      IN:
           ---                                      ---
             STORAGE =      936315.0000               STORAGE =        3877.9583
       CONSTANT HEAD =           0.0000         CONSTANT HEAD =           0.0000
               WELLS =           0.0000                 WELLS =           0.0000
       RIVER LEAKAGE =     1458095.5000         RIVER LEAKAGE =           0.0000
            RECHARGE =       71276.4766              RECHARGE =         343.4863

            TOTAL IN =     2465687.0000              TOTAL IN =        4221.4443

          OUT:                                     OUT:
          ----                                     ----
             STORAGE =     1560023.1250               STORAGE =         932.4602
       CONSTANT HEAD =           0.0000         CONSTANT HEAD =           0.0000
               WELLS =       29439.0918                 WELLS =         223.5936
       RIVER LEAKAGE =      876351.1250         RIVER LEAKAGE =        3064.6409
            RECHARGE =           0.0000              RECHARGE =           0.0000

           TOTAL OUT =     2465813.5000             TOTAL OUT =        4220.6948

            IN - OUT =        -126.5000              IN - OUT =           0.7495

 PERCENT DISCREPANCY =          -0.01     PERCENT DISCREPANCY =           0.02






         TIME SUMMARY AT END OF TIME STEP   42 IN STRESS PERIOD    3
                    SECONDS     MINUTES      HOURS       DAYS        YEARS
                    -----------------------------------------------------------
   TIME STEP LENGTH  86400.      1440.0      24.000      1.0000     2.73785E-03
 STRESS PERIOD TIME 3.62880E+06  60480.      1008.0      42.000     0.11499    
         TOTAL TIME 1.23552E+07 2.05920E+05  3432.0      143.00     0.39151    
1

 SOLVING FOR HEAD 

    ------------------------------------------------
       NWT REQUIRED            3 OUTER ITERATIONS 
       AND A TOTAL OF          3 INNER ITERATIONS.
    ------------------------------------------------

 OUTPUT CONTROL FOR STRESS PERIOD    3   TIME STEP   43
    SAVE HEAD FOR ALL LAYERS
    SAVE DRAWDOWN FOR ALL LAYERS
    SAVE BUDGET
    PRINT HEAD FOR ALL LAYERS
    PRINT BUDGET
1
              HEAD IN LAYER   1 AT END OF TIME STEP  43 IN STRESS PERIOD    3
  ---------------------------------------------------------------------------

            1           2           3           4           5           6           7           8           9          10
           11          12          13          14          15          16          17          18          19          20
 ........................................................................................................................
   1    0.000       0.000       0.000       0.000       0.000       7.340       7.336       7.359       7.373       7.386    
        7.414       7.509       7.658       7.368       7.643       7.475       7.387       7.374       0.000       0.000    
   2    0.000       0.000       0.000       0.000       7.409       7.426       7.401       7.459       7.459       7.464    
        7.484       7.556       7.673       7.365       7.620       7.444       7.377       7.372       0.000       0.000    
   3    0.000       0.000       0.000       7.506       7.541       7.573       7.583       7.603       7.604       7.600    
        7.609       7.649       7.734       7.363       7.582       7.368       7.364       7.372       0.000       0.000    
   4    0.000       0.000       7.690       7.653       7.649       7.365       7.370       7.367       7.363       7.363    
        7.365       7.381       7.741       7.361       7.572       7.423       7.382       7.385       0.000       0.000    
   5    0.000       0.000       7.620       7.445       7.363       7.376       7.677       7.658       7.630       7.639    
        7.660       7.367       7.362       7.371       7.554       7.436       7.396       7.401       7.417       0.000    
   6    0.000       7.359       7.360       7.364       7.496       7.661       7.598       7.529       7.500       7.505    
        7.548       7.578       7.594       7.574       7.492       7.415       7.399       7.406       7.419       0.000    
   7    0.000       7.625       7.621       7.616       7.613       7.546       7.473       7.436       7.419       7.412    
        7.423       7.458       7.473       7.463       7.421       7.395       7.391       7.397       0.000       0.000    
   8    0.000       7.523       7.511       7.506       7.489       7.455       7.428       7.412       7.397       7.378    
        7.360       7.385       7.400       7.402       7.390       7.380       7.374       7.380       0.000       0.000    
   9    0.000       0.000       7.447       7.446       7.442       7.433       7.424       7.412       7.394       7.361    
        7.287       7.354       7.378       7.384       7.376       7.359       7.337       7.360       7.378       7.390    
  10    0.000       0.000       7.435       7.435       7.435       7.432       7.426       7.415       7.397       7.370    
        7.340       7.359       7.375       7.379       7.367       7.332       7.249       7.334       7.371       7.387    

 HEAD WILL BE SAVED ON UNIT   51 AT END OF TIME STEP   43, STRESS PERIOD    3

 DRAWDOWN WILL BE SAVED ON UNIT   52 AT END OF TIME STEP   43, STRESS PERIOD    3
1
  VOLUMETRIC BUDGET FOR ENTIRE MODEL AT END OF TIME STEP   43, STRESS PERIOD   3
  ------------------------------------------------------------------------------

     CUMULATIVE VOLUMES      L**3       RATES FOR THIS TIME STEP      L**3/T
     ------------------                 ------------------------

           IN:                                      IN:
           ---                                      ---
             STORAGE =      940122.7500               STORAGE =        3807.7708
       CONSTANT HEAD =           0.0000         CONSTANT HEAD =           0.0000
               WELLS =           0.0000                 WELLS =           0.0000
       RIVER LEAKAGE =     1458095.5000         RIVER LEAKAGE =           0.0000
            RECHARGE =       71619.9609              RECHARGE =         343.4863

            TOTAL IN =     2469838.2500              TOTAL IN =        4151.2568

          OUT:                                     OUT:
          ----                                     ----
             STORAGE =     1560938.7500               STORAGE =         915.6452
       CONSTANT HEAD =           0.0000         CONSTANT HEAD =           0.0000
               WELLS =       29662.6855                 WELLS =         223.5936
       RIVER LEAKAGE =      879362.4375         RIVER LEAKAGE =        3011.2822
            RECHARGE =           0.0000              RECHARGE =           0.0000

           TOTAL OUT =     2469963.7500             TOTAL OUT =        4150.5210

            IN - OUT =        -125.5000              IN - OUT =           0.7358

 PERCENT DISCREPANCY =          -0.01     PERCENT DISCREPANCY =           0.02






         TIME SUMMARY AT END OF TIME STEP   43 IN STRESS PERIOD    3
                    SECONDS     MINUTES      HOURS       DAYS        YEARS
                    -----------------------------------------------------------
   TIME STEP LENGTH  86400.      1440.0      24.000      1.0000     2.73785E-03
 STRESS PERIOD TIME 3.71520E+06  61920.      1032.0      43.000     0.11773    
         TOTAL TIME 1.24416E+07 2.07360E+05  3456.0      144.00     0.39425    
1

 SOLVING FOR HEAD 

    ------------------------------------------------
       NWT REQUIRED            3 OUTER ITERATIONS 
       AND A TOTAL OF          3 INNER ITERATIONS.
    ------------------------------------------------

 OUTPUT CONTROL FOR STRESS PERIOD    3   TIME STEP   44
    SAVE HEAD FOR ALL LAYERS
    SAVE DRAWDOWN FOR ALL LAYERS
    SAVE BUDGET
    PRINT HEAD FOR ALL LAYERS
    PRINT BUDGET
1
              HEAD IN LAYER   1 AT END OF TIME STEP  44 IN STRESS PERIOD    3
  ---------------------------------------------------------------------------

            1           2           3           4           5           6           7           8           9          10
           11          12          13          14          15          16          17          18          19          20
 ........................................................................................................................
   1    0.000       0.000       0.000       0.000       0.000       7.340       7.337       7.360       7.374       7.387    
        7.415       7.510       7.655       7.368       7.640       7.475       7.388       7.374       0.000       0.000    
   2    0.000       0.000       0.000       0.000       7.410       7.427       7.401       7.459       7.459       7.465    
        7.484       7.556       7.671       7.365       7.617       7.444       7.378       7.372       0.000       0.000    
   3    0.000       0.000       0.000       7.507       7.541       7.571       7.580       7.600       7.602       7.598    
        7.607       7.647       7.731       7.363       7.580       7.368       7.365       7.372       0.000       0.000    
   4    0.000       0.000       7.689       7.651       7.645       7.365       7.370       7.367       7.362       7.363    
        7.365       7.380       7.735       7.361       7.571       7.424       7.382       7.385       0.000       0.000    
   5    0.000       0.000       7.614       7.442       7.362       7.375       7.673       7.655       7.628       7.637    
        7.656       7.367       7.362       7.371       7.552       7.436       7.396       7.402       7.417       0.000    
   6    0.000       7.359       7.360       7.364       7.491       7.657       7.598       7.529       7.501       7.505    
        7.548       7.576       7.592       7.572       7.492       7.416       7.399       7.406       7.419       0.000    
   7    0.000       7.623       7.619       7.614       7.611       7.546       7.473       7.436       7.419       7.412    
        7.423       7.458       7.473       7.463       7.421       7.396       7.391       7.397       0.000       0.000    
   8    0.000       7.524       7.511       7.506       7.490       7.455       7.429       7.413       7.398       7.378    
        7.360       7.385       7.400       7.402       7.391       7.380       7.374       7.380       0.000       0.000    
   9    0.000       0.000       7.447       7.446       7.442       7.433       7.424       7.412       7.394       7.361    
        7.287       7.354       7.378       7.384       7.376       7.359       7.337       7.360       7.378       7.390    
  10    0.000       0.000       7.435       7.435       7.435       7.432       7.426       7.415       7.397       7.370    
        7.340       7.359       7.375       7.379       7.367       7.332       7.249       7.334       7.371       7.387    

 HEAD WILL BE SAVED ON UNIT   51 AT END OF TIME STEP   44, STRESS PERIOD    3

 DRAWDOWN WILL BE SAVED ON UNIT   52 AT END OF TIME STEP   44, STRESS PERIOD    3
1
  VOLUMETRIC BUDGET FOR ENTIRE MODEL AT END OF TIME STEP   44, STRESS PERIOD   3
  ------------------------------------------------------------------------------

     CUMULATIVE VOLUMES      L**3       RATES FOR THIS TIME STEP      L**3/T
     ------------------                 ------------------------

           IN:                                      IN:
           ---                                      ---
             STORAGE =      943862.8125               STORAGE =        3740.0725
       CONSTANT HEAD =           0.0000         CONSTANT HEAD =           0.0000
               WELLS =           0.0000                 WELLS =           0.0000
       RIVER LEAKAGE =     1458095.5000         RIVER LEAKAGE =           0.0000
            RECHARGE =       71963.4453              RECHARGE =         343.4863

            TOTAL IN =     2473921.7500              TOTAL IN =        4083.5588

          OUT:                                     OUT:
          ----                                     ----
             STORAGE =     1561837.8750               STORAGE =         899.0717
       CONSTANT HEAD =           0.0000         CONSTANT HEAD =           0.0000
               WELLS =       29886.2793                 WELLS =         223.5936
       RIVER LEAKAGE =      882322.6250         RIVER LEAKAGE =        2960.1709
            RECHARGE =           0.0000              RECHARGE =           0.0000

           TOTAL OUT =     2474046.7500             TOTAL OUT =        4082.8362

            IN - OUT =        -125.0000              IN - OUT =           0.7227

 PERCENT DISCREPANCY =          -0.01     PERCENT DISCREPANCY =           0.02






         TIME SUMMARY AT END OF TIME STEP   44 IN STRESS PERIOD    3
                    SECONDS     MINUTES      HOURS       DAYS        YEARS
                    -----------------------------------------------------------
   TIME STEP LENGTH  86400.      1440.0      24.000      1.0000     2.73785E-03
 STRESS PERIOD TIME 3.80160E+06  63360.      1056.0      44.000     0.12047    
         TOTAL TIME 1.25280E+07 2.08800E+05  3480.0      145.00     0.39699    
1

 SOLVING FOR HEAD 

    ------------------------------------------------
       NWT REQUIRED            3 OUTER ITERATIONS 
       AND A TOTAL OF          3 INNER ITERATIONS.
    ------------------------------------------------

 OUTPUT CONTROL FOR STRESS PERIOD    3   TIME STEP   45
    SAVE HEAD FOR ALL LAYERS
    SAVE DRAWDOWN FOR ALL LAYERS
    SAVE BUDGET
    PRINT HEAD FOR ALL LAYERS
    PRINT BUDGET
1
              HEAD IN LAYER   1 AT END OF TIME STEP  45 IN STRESS PERIOD    3
  ---------------------------------------------------------------------------

            1           2           3           4           5           6           7           8           9          10
           11          12          13          14          15          16          17          18          19          20
 ........................................................................................................................
   1    0.000       0.000       0.000       0.000       0.000       7.341       7.337       7.361       7.374       7.388    
        7.416       7.510       7.652       7.368       7.636       7.475       7.388       7.374       0.000       0.000    
   2    0.000       0.000       0.000       0.000       7.411       7.427       7.401       7.459       7.459       7.465    
        7.485       7.557       7.668       7.365       7.615       7.444       7.378       7.372       0.000       0.000    
   3    0.000       0.000       0.000       7.508       7.540       7.568       7.576       7.597       7.600       7.596    
        7.605       7.646       7.729       7.363       7.578       7.369       7.365       7.373       0.000       0.000    
   4    0.000       0.000       7.689       7.650       7.641       7.365       7.370       7.366       7.362       7.363    
        7.365       7.380       7.730       7.361       7.569       7.424       7.382       7.385       0.000       0.000    
   5    0.000       0.000       7.607       7.438       7.362       7.375       7.668       7.652       7.626       7.635    
        7.652       7.366       7.362       7.370       7.551       7.436       7.397       7.402       7.417       0.000    
   6    0.000       7.359       7.360       7.364       7.487       7.654       7.598       7.530       7.501       7.506    
        7.548       7.574       7.589       7.570       7.492       7.416       7.399       7.406       7.419       0.000    
   7    0.000       7.621       7.617       7.612       7.610       7.546       7.474       7.437       7.420       7.413    
        7.424       7.458       7.474       7.464       7.422       7.396       7.391       7.397       0.000       0.000    
   8    0.000       7.524       7.512       7.506       7.490       7.456       7.429       7.413       7.398       7.379    
        7.360       7.385       7.401       7.402       7.391       7.380       7.374       7.380       0.000       0.000    
   9    0.000       0.000       7.447       7.447       7.442       7.433       7.424       7.412       7.394       7.361    
        7.287       7.354       7.378       7.384       7.376       7.359       7.337       7.360       7.378       7.390    
  10    0.000       0.000       7.435       7.435       7.435       7.432       7.426       7.415       7.397       7.370    
        7.340       7.359       7.375       7.379       7.367       7.332       7.248       7.334       7.371       7.387    

 HEAD WILL BE SAVED ON UNIT   51 AT END OF TIME STEP   45, STRESS PERIOD    3

 DRAWDOWN WILL BE SAVED ON UNIT   52 AT END OF TIME STEP   45, STRESS PERIOD    3
1
  VOLUMETRIC BUDGET FOR ENTIRE MODEL AT END OF TIME STEP   45, STRESS PERIOD   3
  ------------------------------------------------------------------------------

     CUMULATIVE VOLUMES      L**3       RATES FOR THIS TIME STEP      L**3/T
     ------------------                 ------------------------

           IN:                                      IN:
           ---                                      ---
             STORAGE =      947537.5000               STORAGE =        3674.6946
       CONSTANT HEAD =           0.0000         CONSTANT HEAD =           0.0000
               WELLS =           0.0000                 WELLS =           0.0000
       RIVER LEAKAGE =     1458095.5000         RIVER LEAKAGE =           0.0000
            RECHARGE =       72306.9297              RECHARGE =         343.4863

            TOTAL IN =     2477940.0000              TOTAL IN =        4018.1809

          OUT:                                     OUT:
          ----                                     ----
             STORAGE =     1562720.6250               STORAGE =         882.7452
       CONSTANT HEAD =           0.0000         CONSTANT HEAD =           0.0000
               WELLS =       30109.8730                 WELLS =         223.5936
       RIVER LEAKAGE =      885233.7500         RIVER LEAKAGE =        2911.1321
            RECHARGE =           0.0000              RECHARGE =           0.0000

           TOTAL OUT =     2478064.2500             TOTAL OUT =        4017.4709

            IN - OUT =        -124.2500              IN - OUT =           0.7100

 PERCENT DISCREPANCY =          -0.01     PERCENT DISCREPANCY =           0.02






         TIME SUMMARY AT END OF TIME STEP   45 IN STRESS PERIOD    3
                    SECONDS     MINUTES      HOURS       DAYS        YEARS
                    -----------------------------------------------------------
   TIME STEP LENGTH  86400.      1440.0      24.000      1.0000     2.73785E-03
 STRESS PERIOD TIME 3.88800E+06  64800.      1080.0      45.000     0.12320    
         TOTAL TIME 1.26144E+07 2.10240E+05  3504.0      146.00     0.39973    
1

 SOLVING FOR HEAD 

    ------------------------------------------------
       NWT REQUIRED            3 OUTER ITERATIONS 
       AND A TOTAL OF          3 INNER ITERATIONS.
    ------------------------------------------------

 OUTPUT CONTROL FOR STRESS PERIOD    3   TIME STEP   46
    SAVE HEAD FOR ALL LAYERS
    SAVE DRAWDOWN FOR ALL LAYERS
    SAVE BUDGET
    PRINT HEAD FOR ALL LAYERS
    PRINT BUDGET
1
              HEAD IN LAYER   1 AT END OF TIME STEP  46 IN STRESS PERIOD    3
  ---------------------------------------------------------------------------

            1           2           3           4           5           6           7           8           9          10
           11          12          13          14          15          16          17          18          19          20
 ........................................................................................................................
   1    0.000       0.000       0.000       0.000       0.000       7.341       7.338       7.361       7.375       7.388    
        7.416       7.511       7.649       7.368       7.633       7.475       7.388       7.374       0.000       0.000    
   2    0.000       0.000       0.000       0.000       7.412       7.427       7.400       7.459       7.460       7.465    
        7.485       7.557       7.666       7.365       7.612       7.444       7.378       7.372       0.000       0.000    
   3    0.000       0.000       0.000       7.509       7.540       7.566       7.573       7.594       7.598       7.594    
        7.603       7.644       7.726       7.363       7.576       7.369       7.365       7.373       0.000       0.000    
   4    0.000       0.000       7.688       7.648       7.638       7.365       7.369       7.366       7.362       7.363    
        7.365       7.379       7.724       7.361       7.567       7.424       7.382       7.385       0.000       0.000    
   5    0.000       0.000       7.601       7.435       7.362       7.375       7.664       7.649       7.624       7.633    
        7.649       7.366       7.362       7.370       7.549       7.437       7.397       7.402       7.417       0.000    
   6    0.000       7.359       7.360       7.364       7.483       7.651       7.597       7.530       7.502       7.506    
        7.547       7.572       7.587       7.568       7.492       7.416       7.399       7.406       7.419       0.000    
   7    0.000       7.619       7.615       7.610       7.608       7.546       7.475       7.437       7.420       7.413    
        7.424       7.458       7.474       7.464       7.422       7.396       7.391       7.397       0.000       0.000    
   8    0.000       7.525       7.512       7.506       7.490       7.456       7.429       7.413       7.398       7.379    
        7.361       7.385       7.401       7.403       7.391       7.380       7.374       7.380       0.000       0.000    
   9    0.000       0.000       7.448       7.447       7.442       7.433       7.424       7.413       7.394       7.361    
        7.287       7.354       7.378       7.384       7.376       7.359       7.337       7.360       7.378       7.390    
  10    0.000       0.000       7.435       7.436       7.435       7.432       7.426       7.415       7.397       7.370    
        7.340       7.359       7.375       7.379       7.367       7.332       7.248       7.334       7.371       7.387    

 HEAD WILL BE SAVED ON UNIT   51 AT END OF TIME STEP   46, STRESS PERIOD    3

 DRAWDOWN WILL BE SAVED ON UNIT   52 AT END OF TIME STEP   46, STRESS PERIOD    3
1
  VOLUMETRIC BUDGET FOR ENTIRE MODEL AT END OF TIME STEP   46, STRESS PERIOD   3
  ------------------------------------------------------------------------------

     CUMULATIVE VOLUMES      L**3       RATES FOR THIS TIME STEP      L**3/T
     ------------------                 ------------------------

           IN:                                      IN:
           ---                                      ---
             STORAGE =      951149.0625               STORAGE =        3611.5481
       CONSTANT HEAD =           0.0000         CONSTANT HEAD =           0.0000
               WELLS =           0.0000                 WELLS =           0.0000
       RIVER LEAKAGE =     1458095.5000         RIVER LEAKAGE =           0.0000
            RECHARGE =       72650.4141              RECHARGE =         343.4863

            TOTAL IN =     2481895.0000              TOTAL IN =        3955.0344

          OUT:                                     OUT:
          ----                                     ----
             STORAGE =     1563587.3750               STORAGE =         866.7291
       CONSTANT HEAD =           0.0000         CONSTANT HEAD =           0.0000
               WELLS =       30333.4668                 WELLS =         223.5936
       RIVER LEAKAGE =      888097.7500         RIVER LEAKAGE =        2864.0142
            RECHARGE =           0.0000              RECHARGE =           0.0000

           TOTAL OUT =     2482018.5000             TOTAL OUT =        3954.3369

            IN - OUT =        -123.5000              IN - OUT =           0.6975

 PERCENT DISCREPANCY =          -0.00     PERCENT DISCREPANCY =           0.02






         TIME SUMMARY AT END OF TIME STEP   46 IN STRESS PERIOD    3
                    SECONDS     MINUTES      HOURS       DAYS        YEARS
                    -----------------------------------------------------------
   TIME STEP LENGTH  86400.      1440.0      24.000      1.0000     2.73785E-03
 STRESS PERIOD TIME 3.97440E+06  66240.      1104.0      46.000     0.12594    
         TOTAL TIME 1.27008E+07 2.11680E+05  3528.0      147.00     0.40246    
1

 SOLVING FOR HEAD 

    ------------------------------------------------
       NWT REQUIRED            3 OUTER ITERATIONS 
       AND A TOTAL OF          3 INNER ITERATIONS.
    ------------------------------------------------

 OUTPUT CONTROL FOR STRESS PERIOD    3   TIME STEP   47
    SAVE HEAD FOR ALL LAYERS
    SAVE DRAWDOWN FOR ALL LAYERS
    SAVE BUDGET
    PRINT HEAD FOR ALL LAYERS
    PRINT BUDGET
1
              HEAD IN LAYER   1 AT END OF TIME STEP  47 IN STRESS PERIOD    3
  ---------------------------------------------------------------------------

            1           2           3           4           5           6           7           8           9          10
           11          12          13          14          15          16          17          18          19          20
 ........................................................................................................................
   1    0.000       0.000       0.000       0.000       0.000       7.342       7.338       7.362       7.375       7.389    
        7.417       7.511       7.646       7.368       7.630       7.475       7.389       7.374       0.000       0.000    
   2    0.000       0.000       0.000       0.000       7.413       7.427       7.400       7.459       7.460       7.466    
        7.486       7.558       7.663       7.365       7.609       7.445       7.379       7.372       0.000       0.000    
   3    0.000       0.000       0.000       7.510       7.540       7.564       7.570       7.591       7.596       7.592    
        7.601       7.642       7.724       7.363       7.575       7.369       7.366       7.373       0.000       0.000    
   4    0.000       0.000       7.687       7.646       7.634       7.365       7.369       7.366       7.362       7.363    
        7.365       7.379       7.719       7.361       7.566       7.425       7.383       7.385       0.000       0.000    
   5    0.000       0.000       7.595       7.432       7.362       7.374       7.660       7.647       7.622       7.630    
        7.645       7.366       7.362       7.370       7.548       7.437       7.397       7.402       7.417       0.000    
   6    0.000       7.359       7.360       7.363       7.479       7.647       7.597       7.530       7.502       7.506    
        7.547       7.570       7.585       7.566       7.492       7.417       7.399       7.406       7.419       0.000    
   7    0.000       7.617       7.613       7.608       7.606       7.546       7.475       7.438       7.421       7.414    
        7.425       7.459       7.474       7.464       7.422       7.396       7.391       7.397       0.000       0.000    
   8    0.000       7.525       7.512       7.507       7.491       7.457       7.430       7.413       7.398       7.379    
        7.361       7.386       7.401       7.403       7.391       7.380       7.374       7.380       0.000       0.000    
   9    0.000       0.000       7.448       7.447       7.443       7.433       7.424       7.413       7.394       7.361    
        7.287       7.354       7.378       7.384       7.377       7.359       7.337       7.360       7.378       7.390    
  10    0.000       0.000       7.435       7.436       7.435       7.432       7.426       7.415       7.397       7.370    
        7.340       7.359       7.375       7.379       7.367       7.332       7.248       7.334       7.371       7.387    

 HEAD WILL BE SAVED ON UNIT   51 AT END OF TIME STEP   47, STRESS PERIOD    3

 DRAWDOWN WILL BE SAVED ON UNIT   52 AT END OF TIME STEP   47, STRESS PERIOD    3
1
  VOLUMETRIC BUDGET FOR ENTIRE MODEL AT END OF TIME STEP   47, STRESS PERIOD   3
  ------------------------------------------------------------------------------

     CUMULATIVE VOLUMES      L**3       RATES FOR THIS TIME STEP      L**3/T
     ------------------                 ------------------------

           IN:                                      IN:
           ---                                      ---
             STORAGE =      954699.9375               STORAGE =        3550.8818
       CONSTANT HEAD =           0.0000         CONSTANT HEAD =           0.0000
               WELLS =           0.0000                 WELLS =           0.0000
       RIVER LEAKAGE =     1458095.5000         RIVER LEAKAGE =           0.0000
            RECHARGE =       72993.8984              RECHARGE =         343.4863

            TOTAL IN =     2485789.5000              TOTAL IN =        3894.3682

          OUT:                                     OUT:
          ----                                     ----
             STORAGE =     1564438.7500               STORAGE =         851.4182
       CONSTANT HEAD =           0.0000         CONSTANT HEAD =           0.0000
               WELLS =       30557.0605                 WELLS =         223.5936
       RIVER LEAKAGE =      890916.4375         RIVER LEAKAGE =        2818.6707
            RECHARGE =           0.0000              RECHARGE =           0.0000

           TOTAL OUT =     2485912.2500             TOTAL OUT =        3893.6824

            IN - OUT =        -122.7500              IN - OUT =           0.6858

 PERCENT DISCREPANCY =          -0.00     PERCENT DISCREPANCY =           0.02






         TIME SUMMARY AT END OF TIME STEP   47 IN STRESS PERIOD    3
                    SECONDS     MINUTES      HOURS       DAYS        YEARS
                    -----------------------------------------------------------
   TIME STEP LENGTH  86400.      1440.0      24.000      1.0000     2.73785E-03
 STRESS PERIOD TIME 4.06080E+06  67680.      1128.0      47.000     0.12868    
         TOTAL TIME 1.27872E+07 2.13120E+05  3552.0      148.00     0.40520    
1

 SOLVING FOR HEAD 

    ------------------------------------------------
       NWT REQUIRED            3 OUTER ITERATIONS 
       AND A TOTAL OF          3 INNER ITERATIONS.
    ------------------------------------------------

 OUTPUT CONTROL FOR STRESS PERIOD    3   TIME STEP   48
    SAVE HEAD FOR ALL LAYERS
    SAVE DRAWDOWN FOR ALL LAYERS
    SAVE BUDGET
    PRINT HEAD FOR ALL LAYERS
    PRINT BUDGET
1
              HEAD IN LAYER   1 AT END OF TIME STEP  48 IN STRESS PERIOD    3
  ---------------------------------------------------------------------------

            1           2           3           4           5           6           7           8           9          10
           11          12          13          14          15          16          17          18          19          20
 ........................................................................................................................
   1    0.000       0.000       0.000       0.000       0.000       7.342       7.339       7.362       7.376       7.389    
        7.418       7.512       7.643       7.367       7.627       7.476       7.389       7.374       0.000       0.000    
   2    0.000       0.000       0.000       0.000       7.414       7.428       7.400       7.459       7.461       7.466    
        7.487       7.558       7.661       7.365       7.607       7.445       7.379       7.372       0.000       0.000    
   3    0.000       0.000       0.000       7.511       7.540       7.561       7.567       7.589       7.593       7.591    
        7.599       7.640       7.721       7.363       7.573       7.370       7.366       7.373       0.000       0.000    
   4    0.000       0.000       7.686       7.644       7.631       7.365       7.369       7.366       7.362       7.363    
        7.365       7.378       7.714       7.361       7.564       7.425       7.383       7.385       0.000       0.000    
   5    0.000       0.000       7.589       7.429       7.362       7.374       7.656       7.644       7.620       7.628    
        7.642       7.366       7.361       7.370       7.546       7.437       7.397       7.402       7.417       0.000    
   6    0.000       7.359       7.360       7.363       7.475       7.644       7.597       7.531       7.503       7.507    
        7.547       7.569       7.583       7.564       7.492       7.417       7.399       7.406       7.419       0.000    
   7    0.000       7.615       7.611       7.606       7.605       7.546       7.476       7.438       7.421       7.414    
        7.425       7.459       7.474       7.464       7.423       7.396       7.391       7.397       0.000       0.000    
   8    0.000       7.526       7.513       7.507       7.491       7.457       7.430       7.413       7.398       7.379    
        7.361       7.386       7.401       7.403       7.391       7.380       7.374       7.380       0.000       0.000    
   9    0.000       0.000       7.448       7.448       7.443       7.433       7.424       7.413       7.394       7.361    
        7.287       7.354       7.378       7.384       7.377       7.359       7.337       7.360       7.378       7.390    
  10    0.000       0.000       7.435       7.436       7.435       7.432       7.426       7.415       7.397       7.370    
        7.340       7.359       7.375       7.379       7.367       7.332       7.248       7.334       7.371       7.387    

 HEAD WILL BE SAVED ON UNIT   51 AT END OF TIME STEP   48, STRESS PERIOD    3

 DRAWDOWN WILL BE SAVED ON UNIT   52 AT END OF TIME STEP   48, STRESS PERIOD    3
1
  VOLUMETRIC BUDGET FOR ENTIRE MODEL AT END OF TIME STEP   48, STRESS PERIOD   3
  ------------------------------------------------------------------------------

     CUMULATIVE VOLUMES      L**3       RATES FOR THIS TIME STEP      L**3/T
     ------------------                 ------------------------

           IN:                                      IN:
           ---                                      ---
             STORAGE =      958192.0000               STORAGE =        3492.0718
       CONSTANT HEAD =           0.0000         CONSTANT HEAD =           0.0000
               WELLS =           0.0000                 WELLS =           0.0000
       RIVER LEAKAGE =     1458095.5000         RIVER LEAKAGE =           0.0000
            RECHARGE =       73337.3828              RECHARGE =         343.4863

            TOTAL IN =     2489625.0000              TOTAL IN =        3835.5581

          OUT:                                     OUT:
          ----                                     ----
             STORAGE =     1565275.1250               STORAGE =         836.3189
       CONSTANT HEAD =           0.0000         CONSTANT HEAD =           0.0000
               WELLS =       30780.6543                 WELLS =         223.5936
       RIVER LEAKAGE =      893691.4375         RIVER LEAKAGE =        2774.9709
            RECHARGE =           0.0000              RECHARGE =           0.0000

           TOTAL OUT =     2489747.2500             TOTAL OUT =        3834.8833

            IN - OUT =        -122.2500              IN - OUT =           0.6748

 PERCENT DISCREPANCY =          -0.00     PERCENT DISCREPANCY =           0.02






         TIME SUMMARY AT END OF TIME STEP   48 IN STRESS PERIOD    3
                    SECONDS     MINUTES      HOURS       DAYS        YEARS
                    -----------------------------------------------------------
   TIME STEP LENGTH  86400.      1440.0      24.000      1.0000     2.73785E-03
 STRESS PERIOD TIME 4.14720E+06  69120.      1152.0      48.000     0.13142    
         TOTAL TIME 1.28736E+07 2.14560E+05  3576.0      149.00     0.40794    
1

 SOLVING FOR HEAD 

    ------------------------------------------------
       NWT REQUIRED            3 OUTER ITERATIONS 
       AND A TOTAL OF          3 INNER ITERATIONS.
    ------------------------------------------------

 OUTPUT CONTROL FOR STRESS PERIOD    3   TIME STEP   49
    SAVE HEAD FOR ALL LAYERS
    SAVE DRAWDOWN FOR ALL LAYERS
    SAVE BUDGET
    PRINT HEAD FOR ALL LAYERS
    PRINT BUDGET
1
              HEAD IN LAYER   1 AT END OF TIME STEP  49 IN STRESS PERIOD    3
  ---------------------------------------------------------------------------

            1           2           3           4           5           6           7           8           9          10
           11          12          13          14          15          16          17          18          19          20
 ........................................................................................................................
   1    0.000       0.000       0.000       0.000       0.000       7.343       7.339       7.363       7.376       7.390    
        7.419       7.512       7.640       7.367       7.624       7.476       7.389       7.374       0.000       0.000    
   2    0.000       0.000       0.000       0.000       7.415       7.428       7.400       7.459       7.461       7.467    
        7.487       7.559       7.659       7.365       7.604       7.445       7.379       7.372       0.000       0.000    
   3    0.000       0.000       0.000       7.512       7.540       7.559       7.564       7.586       7.591       7.589    
        7.598       7.639       7.719       7.362       7.571       7.370       7.366       7.373       0.000       0.000    
   4    0.000       0.000       7.686       7.642       7.627       7.364       7.369       7.366       7.362       7.363    
        7.365       7.378       7.708       7.361       7.562       7.425       7.383       7.385       0.000       0.000    
   5    0.000       0.000       7.584       7.427       7.361       7.374       7.651       7.642       7.618       7.626    
        7.638       7.366       7.361       7.369       7.545       7.437       7.397       7.402       7.417       0.000    
   6    0.000       7.359       7.360       7.363       7.471       7.641       7.596       7.531       7.503       7.507    
        7.547       7.567       7.581       7.562       7.492       7.417       7.399       7.406       7.419       0.000    
   7    0.000       7.613       7.609       7.604       7.603       7.546       7.477       7.439       7.421       7.415    
        7.426       7.459       7.474       7.464       7.423       7.397       7.391       7.397       0.000       0.000    
   8    0.000       7.526       7.513       7.507       7.492       7.458       7.430       7.414       7.398       7.379    
        7.361       7.386       7.402       7.403       7.391       7.380       7.374       7.380       0.000       0.000    
   9    0.000       0.000       7.449       7.448       7.443       7.434       7.424       7.413       7.394       7.361    
        7.287       7.354       7.378       7.384       7.377       7.359       7.337       7.360       7.378       7.390    
  10    0.000       0.000       7.435       7.436       7.435       7.432       7.426       7.415       7.397       7.370    
        7.340       7.359       7.375       7.379       7.367       7.332       7.248       7.334       7.371       7.387    

 HEAD WILL BE SAVED ON UNIT   51 AT END OF TIME STEP   49, STRESS PERIOD    3

 DRAWDOWN WILL BE SAVED ON UNIT   52 AT END OF TIME STEP   49, STRESS PERIOD    3
1
  VOLUMETRIC BUDGET FOR ENTIRE MODEL AT END OF TIME STEP   49, STRESS PERIOD   3
  ------------------------------------------------------------------------------

     CUMULATIVE VOLUMES      L**3       RATES FOR THIS TIME STEP      L**3/T
     ------------------                 ------------------------

           IN:                                      IN:
           ---                                      ---
             STORAGE =      961627.0000               STORAGE =        3435.0044
       CONSTANT HEAD =           0.0000         CONSTANT HEAD =           0.0000
               WELLS =           0.0000                 WELLS =           0.0000
       RIVER LEAKAGE =     1458095.5000         RIVER LEAKAGE =           0.0000
            RECHARGE =       73680.8672              RECHARGE =         343.4863

            TOTAL IN =     2493403.2500              TOTAL IN =        3778.4907

          OUT:                                     OUT:
          ----                                     ----
             STORAGE =     1566096.5000               STORAGE =         821.4294
       CONSTANT HEAD =           0.0000         CONSTANT HEAD =           0.0000
               WELLS =       31004.2480                 WELLS =         223.5936
       RIVER LEAKAGE =      896424.2500         RIVER LEAKAGE =        2732.8040
            RECHARGE =           0.0000              RECHARGE =           0.0000

           TOTAL OUT =     2493525.0000             TOTAL OUT =        3777.8269

            IN - OUT =        -121.7500              IN - OUT =           0.6638

 PERCENT DISCREPANCY =          -0.00     PERCENT DISCREPANCY =           0.02






         TIME SUMMARY AT END OF TIME STEP   49 IN STRESS PERIOD    3
                    SECONDS     MINUTES      HOURS       DAYS        YEARS
                    -----------------------------------------------------------
   TIME STEP LENGTH  86400.      1440.0      24.000      1.0000     2.73785E-03
 STRESS PERIOD TIME 4.23360E+06  70560.      1176.0      49.000     0.13415    
         TOTAL TIME 1.29600E+07 2.16000E+05  3600.0      150.00     0.41068    
1

 SOLVING FOR HEAD 

    ------------------------------------------------
       NWT REQUIRED            3 OUTER ITERATIONS 
       AND A TOTAL OF          3 INNER ITERATIONS.
    ------------------------------------------------

 OUTPUT CONTROL FOR STRESS PERIOD    3   TIME STEP   50
    SAVE HEAD FOR ALL LAYERS
    SAVE DRAWDOWN FOR ALL LAYERS
    SAVE BUDGET
    PRINT HEAD FOR ALL LAYERS
    PRINT BUDGET
1
              HEAD IN LAYER   1 AT END OF TIME STEP  50 IN STRESS PERIOD    3
  ---------------------------------------------------------------------------

            1           2           3           4           5           6           7           8           9          10
           11          12          13          14          15          16          17          18          19          20
 ........................................................................................................................
   1    0.000       0.000       0.000       0.000       0.000       7.344       7.340       7.364       7.377       7.390    
        7.420       7.513       7.637       7.367       7.621       7.476       7.390       7.374       0.000       0.000    
   2    0.000       0.000       0.000       0.000       7.416       7.428       7.400       7.459       7.461       7.467    
        7.488       7.559       7.656       7.365       7.602       7.445       7.380       7.372       0.000       0.000    
   3    0.000       0.000       0.000       7.513       7.540       7.557       7.561       7.583       7.589       7.587    
        7.596       7.637       7.717       7.362       7.569       7.370       7.366       7.373       0.000       0.000    
   4    0.000       0.000       7.685       7.640       7.624       7.364       7.369       7.366       7.362       7.363    
        7.364       7.378       7.703       7.361       7.561       7.426       7.383       7.385       0.000       0.000    
   5    0.000       0.000       7.578       7.424       7.361       7.373       7.647       7.639       7.616       7.624    
        7.635       7.366       7.361       7.369       7.543       7.438       7.397       7.402       7.417       0.000    
   6    0.000       7.358       7.360       7.363       7.467       7.638       7.596       7.531       7.503       7.508    
        7.547       7.565       7.579       7.560       7.492       7.418       7.399       7.406       7.419       0.000    
   7    0.000       7.611       7.607       7.602       7.601       7.546       7.477       7.440       7.422       7.415    
        7.426       7.459       7.474       7.464       7.424       7.397       7.391       7.397       0.000       0.000    
   8    0.000       7.527       7.513       7.507       7.492       7.458       7.431       7.414       7.398       7.379    
        7.362       7.386       7.402       7.404       7.392       7.380       7.374       7.380       0.000       0.000    
   9    0.000       0.000       7.449       7.448       7.443       7.434       7.424       7.413       7.394       7.361    
        7.287       7.354       7.378       7.384       7.377       7.359       7.337       7.360       7.378       7.390    
  10    0.000       0.000       7.436       7.436       7.435       7.432       7.426       7.415       7.397       7.370    
        7.340       7.359       7.375       7.379       7.367       7.332       7.248       7.334       7.371       7.387    

 HEAD WILL BE SAVED ON UNIT   51 AT END OF TIME STEP   50, STRESS PERIOD    3

 DRAWDOWN WILL BE SAVED ON UNIT   52 AT END OF TIME STEP   50, STRESS PERIOD    3
1
  VOLUMETRIC BUDGET FOR ENTIRE MODEL AT END OF TIME STEP   50, STRESS PERIOD   3
  ------------------------------------------------------------------------------

     CUMULATIVE VOLUMES      L**3       RATES FOR THIS TIME STEP      L**3/T
     ------------------                 ------------------------

           IN:                                      IN:
           ---                                      ---
             STORAGE =      965006.6250               STORAGE =        3379.5945
       CONSTANT HEAD =           0.0000         CONSTANT HEAD =           0.0000
               WELLS =           0.0000                 WELLS =           0.0000
       RIVER LEAKAGE =     1458095.5000         RIVER LEAKAGE =           0.0000
            RECHARGE =       74024.3516              RECHARGE =         343.4863

            TOTAL IN =     2497126.2500              TOTAL IN =        3723.0808

          OUT:                                     OUT:
          ----                                     ----
             STORAGE =     1566903.2500               STORAGE =         806.7468
       CONSTANT HEAD =           0.0000         CONSTANT HEAD =           0.0000
               WELLS =       31227.8418                 WELLS =         223.5936
       RIVER LEAKAGE =      899116.3125         RIVER LEAKAGE =        2692.0874
            RECHARGE =           0.0000              RECHARGE =           0.0000

           TOTAL OUT =     2497247.5000             TOTAL OUT =        3722.4277

            IN - OUT =        -121.2500              IN - OUT =           0.6531

 PERCENT DISCREPANCY =          -0.00     PERCENT DISCREPANCY =           0.02






         TIME SUMMARY AT END OF TIME STEP   50 IN STRESS PERIOD    3
                    SECONDS     MINUTES      HOURS       DAYS        YEARS
                    -----------------------------------------------------------
   TIME STEP LENGTH  86400.      1440.0      24.000      1.0000     2.73785E-03
 STRESS PERIOD TIME 4.32000E+06  72000.      1200.0      50.000     0.13689    
         TOTAL TIME 1.30464E+07 2.17440E+05  3624.0      151.00     0.41342    
1

 SOLVING FOR HEAD 

    ------------------------------------------------
       NWT REQUIRED            3 OUTER ITERATIONS 
       AND A TOTAL OF          3 INNER ITERATIONS.
    ------------------------------------------------

 OUTPUT CONTROL FOR STRESS PERIOD    3   TIME STEP   51
    SAVE HEAD FOR ALL LAYERS
    SAVE DRAWDOWN FOR ALL LAYERS
    SAVE BUDGET
    PRINT HEAD FOR ALL LAYERS
    PRINT BUDGET
1
              HEAD IN LAYER   1 AT END OF TIME STEP  51 IN STRESS PERIOD    3
  ---------------------------------------------------------------------------

            1           2           3           4           5           6           7           8           9          10
           11          12          13          14          15          16          17          18          19          20
 ........................................................................................................................
   1    0.000       0.000       0.000       0.000       0.000       7.344       7.341       7.364       7.377       7.391    
        7.420       7.513       7.634       7.367       7.618       7.476       7.390       7.375       0.000       0.000    
   2    0.000       0.000       0.000       0.000       7.416       7.428       7.400       7.459       7.462       7.467    
        7.488       7.559       7.654       7.364       7.599       7.446       7.380       7.372       0.000       0.000    
   3    0.000       0.000       0.000       7.514       7.539       7.555       7.558       7.581       7.587       7.585    
        7.594       7.635       7.714       7.362       7.567       7.371       7.367       7.373       0.000       0.000    
   4    0.000       0.000       7.684       7.638       7.620       7.364       7.368       7.366       7.362       7.363    
        7.364       7.377       7.698       7.361       7.559       7.426       7.384       7.385       0.000       0.000    
   5    0.000       0.000       7.573       7.422       7.361       7.373       7.644       7.637       7.614       7.622    
        7.632       7.366       7.361       7.369       7.542       7.438       7.398       7.402       7.417       0.000    
   6    0.000       7.358       7.360       7.363       7.464       7.635       7.595       7.532       7.504       7.508    
        7.546       7.563       7.577       7.558       7.492       7.418       7.400       7.406       7.419       0.000    
   7    0.000       7.609       7.605       7.600       7.600       7.546       7.478       7.440       7.422       7.416    
        7.427       7.459       7.474       7.464       7.424       7.397       7.391       7.397       0.000       0.000    
   8    0.000       7.527       7.513       7.508       7.492       7.459       7.431       7.414       7.399       7.380    
        7.362       7.387       7.402       7.404       7.392       7.380       7.374       7.380       0.000       0.000    
   9    0.000       0.000       7.450       7.449       7.444       7.434       7.424       7.413       7.394       7.361    
        7.287       7.354       7.378       7.384       7.377       7.359       7.337       7.360       7.378       7.390    
  10    0.000       0.000       7.436       7.436       7.435       7.432       7.427       7.415       7.397       7.370    
        7.340       7.359       7.375       7.379       7.367       7.332       7.248       7.334       7.371       7.387    

 HEAD WILL BE SAVED ON UNIT   51 AT END OF TIME STEP   51, STRESS PERIOD    3

 DRAWDOWN WILL BE SAVED ON UNIT   52 AT END OF TIME STEP   51, STRESS PERIOD    3
1
  VOLUMETRIC BUDGET FOR ENTIRE MODEL AT END OF TIME STEP   51, STRESS PERIOD   3
  ------------------------------------------------------------------------------

     CUMULATIVE VOLUMES      L**3       RATES FOR THIS TIME STEP      L**3/T
     ------------------                 ------------------------

           IN:                                      IN:
           ---                                      ---
             STORAGE =      968332.6875               STORAGE =        3326.0874
       CONSTANT HEAD =           0.0000         CONSTANT HEAD =           0.0000
               WELLS =           0.0000                 WELLS =           0.0000
       RIVER LEAKAGE =     1458095.5000         RIVER LEAKAGE =           0.0000
            RECHARGE =       74367.8359              RECHARGE =         343.4863

            TOTAL IN =     2500796.0000              TOTAL IN =        3669.5737

          OUT:                                     OUT:
          ----                                     ----
             STORAGE =     1567695.8750               STORAGE =         792.6055
       CONSTANT HEAD =           0.0000         CONSTANT HEAD =           0.0000
               WELLS =       31451.4355                 WELLS =         223.5936
       RIVER LEAKAGE =      901769.0625         RIVER LEAKAGE =        2652.7317
            RECHARGE =           0.0000              RECHARGE =           0.0000

           TOTAL OUT =     2500916.2500             TOTAL OUT =        3668.9307

            IN - OUT =        -120.2500              IN - OUT =           0.6431

 PERCENT DISCREPANCY =          -0.00     PERCENT DISCREPANCY =           0.02






         TIME SUMMARY AT END OF TIME STEP   51 IN STRESS PERIOD    3
                    SECONDS     MINUTES      HOURS       DAYS        YEARS
                    -----------------------------------------------------------
   TIME STEP LENGTH  86400.      1440.0      24.000      1.0000     2.73785E-03
 STRESS PERIOD TIME 4.40640E+06  73440.      1224.0      51.000     0.13963    
         TOTAL TIME 1.31328E+07 2.18880E+05  3648.0      152.00     0.41615    
1

 SOLVING FOR HEAD 

    ------------------------------------------------
       NWT REQUIRED            3 OUTER ITERATIONS 
       AND A TOTAL OF          3 INNER ITERATIONS.
    ------------------------------------------------

 OUTPUT CONTROL FOR STRESS PERIOD    3   TIME STEP   52
    SAVE HEAD FOR ALL LAYERS
    SAVE DRAWDOWN FOR ALL LAYERS
    SAVE BUDGET
    PRINT HEAD FOR ALL LAYERS
    PRINT BUDGET
1
              HEAD IN LAYER   1 AT END OF TIME STEP  52 IN STRESS PERIOD    3
  ---------------------------------------------------------------------------

            1           2           3           4           5           6           7           8           9          10
           11          12          13          14          15          16          17          18          19          20
 ........................................................................................................................
   1    0.000       0.000       0.000       0.000       0.000       7.345       7.341       7.365       7.378       7.392    
        7.421       7.514       7.631       7.367       7.615       7.476       7.390       7.375       0.000       0.000    
   2    0.000       0.000       0.000       0.000       7.417       7.428       7.399       7.459       7.462       7.468    
        7.489       7.560       7.652       7.364       7.597       7.446       7.380       7.373       0.000       0.000    
   3    0.000       0.000       0.000       7.515       7.539       7.552       7.555       7.578       7.585       7.583    
        7.592       7.633       7.712       7.362       7.566       7.371       7.367       7.373       0.000       0.000    
   4    0.000       0.000       7.683       7.637       7.617       7.364       7.368       7.366       7.362       7.363    
        7.364       7.377       7.693       7.361       7.557       7.426       7.384       7.385       0.000       0.000    
   5    0.000       0.000       7.567       7.420       7.361       7.373       7.640       7.634       7.613       7.620    
        7.628       7.365       7.361       7.369       7.540       7.438       7.398       7.402       7.417       0.000    
   6    0.000       7.358       7.359       7.362       7.461       7.632       7.595       7.532       7.504       7.508    
        7.546       7.562       7.575       7.556       7.492       7.418       7.400       7.406       7.419       0.000    
   7    0.000       7.607       7.603       7.598       7.598       7.546       7.479       7.441       7.423       7.416    
        7.427       7.459       7.474       7.464       7.424       7.397       7.391       7.397       0.000       0.000    
   8    0.000       7.528       7.514       7.508       7.492       7.459       7.431       7.414       7.399       7.380    
        7.362       7.387       7.402       7.404       7.392       7.380       7.374       7.380       0.000       0.000    
   9    0.000       0.000       7.450       7.449       7.444       7.434       7.424       7.413       7.394       7.361    
        7.287       7.354       7.378       7.384       7.377       7.359       7.337       7.360       7.378       7.390    
  10    0.000       0.000       7.436       7.436       7.436       7.432       7.427       7.416       7.397       7.370    
        7.340       7.359       7.375       7.379       7.367       7.332       7.248       7.334       7.371       7.387    

 HEAD WILL BE SAVED ON UNIT   51 AT END OF TIME STEP   52, STRESS PERIOD    3

 DRAWDOWN WILL BE SAVED ON UNIT   52 AT END OF TIME STEP   52, STRESS PERIOD    3
1
  VOLUMETRIC BUDGET FOR ENTIRE MODEL AT END OF TIME STEP   52, STRESS PERIOD   3
  ------------------------------------------------------------------------------

     CUMULATIVE VOLUMES      L**3       RATES FOR THIS TIME STEP      L**3/T
     ------------------                 ------------------------

           IN:                                      IN:
           ---                                      ---
             STORAGE =      971607.1250               STORAGE =        3274.4583
       CONSTANT HEAD =           0.0000         CONSTANT HEAD =           0.0000
               WELLS =           0.0000                 WELLS =           0.0000
       RIVER LEAKAGE =     1458095.5000         RIVER LEAKAGE =           0.0000
            RECHARGE =       74711.3203              RECHARGE =         343.4863

            TOTAL IN =     2504413.7500              TOTAL IN =        3617.9446

          OUT:                                     OUT:
          ----                                     ----
             STORAGE =     1568475.0000               STORAGE =         779.0673
       CONSTANT HEAD =           0.0000         CONSTANT HEAD =           0.0000
               WELLS =       31675.0293                 WELLS =         223.5936
       RIVER LEAKAGE =      904383.6875         RIVER LEAKAGE =        2614.6506
            RECHARGE =           0.0000              RECHARGE =           0.0000

           TOTAL OUT =     2504533.7500             TOTAL OUT =        3617.3115

            IN - OUT =        -120.0000              IN - OUT =           0.6331

 PERCENT DISCREPANCY =          -0.00     PERCENT DISCREPANCY =           0.02






         TIME SUMMARY AT END OF TIME STEP   52 IN STRESS PERIOD    3
                    SECONDS     MINUTES      HOURS       DAYS        YEARS
                    -----------------------------------------------------------
   TIME STEP LENGTH  86400.      1440.0      24.000      1.0000     2.73785E-03
 STRESS PERIOD TIME 4.49280E+06  74880.      1248.0      52.000     0.14237    
         TOTAL TIME 1.32192E+07 2.20320E+05  3672.0      153.00     0.41889    
1

 SOLVING FOR HEAD 

    ------------------------------------------------
       NWT REQUIRED            3 OUTER ITERATIONS 
       AND A TOTAL OF          3 INNER ITERATIONS.
    ------------------------------------------------

 OUTPUT CONTROL FOR STRESS PERIOD    3   TIME STEP   53
    SAVE HEAD FOR ALL LAYERS
    SAVE DRAWDOWN FOR ALL LAYERS
    SAVE BUDGET
    PRINT HEAD FOR ALL LAYERS
    PRINT BUDGET
1
              HEAD IN LAYER   1 AT END OF TIME STEP  53 IN STRESS PERIOD    3
  ---------------------------------------------------------------------------

            1           2           3           4           5           6           7           8           9          10
           11          12          13          14          15          16          17          18          19          20
 ........................................................................................................................
   1    0.000       0.000       0.000       0.000       0.000       7.345       7.342       7.365       7.379       7.392    
        7.422       7.514       7.629       7.367       7.612       7.476       7.391       7.375       0.000       0.000    
   2    0.000       0.000       0.000       0.000       7.418       7.428       7.399       7.459       7.462       7.468    
        7.489       7.560       7.650       7.364       7.595       7.446       7.381       7.373       0.000       0.000    
   3    0.000       0.000       0.000       7.515       7.539       7.550       7.552       7.575       7.583       7.581    
        7.591       7.632       7.709       7.362       7.564       7.371       7.367       7.373       0.000       0.000    
   4    0.000       0.000       7.682       7.635       7.614       7.364       7.368       7.365       7.362       7.363    
        7.364       7.377       7.688       7.360       7.556       7.426       7.384       7.385       0.000       0.000    
   5    0.000       0.000       7.562       7.418       7.361       7.373       7.636       7.632       7.611       7.618    
        7.625       7.365       7.361       7.368       7.539       7.438       7.398       7.402       7.417       0.000    
   6    0.000       7.358       7.359       7.362       7.458       7.629       7.594       7.532       7.505       7.509    
        7.546       7.560       7.573       7.555       7.492       7.419       7.400       7.406       7.419       0.000    
   7    0.000       7.605       7.601       7.597       7.596       7.546       7.479       7.441       7.423       7.417    
        7.428       7.460       7.475       7.464       7.424       7.397       7.392       7.397       0.000       0.000    
   8    0.000       7.528       7.514       7.508       7.493       7.459       7.432       7.415       7.399       7.380    
        7.362       7.387       7.403       7.404       7.392       7.380       7.374       7.380       0.000       0.000    
   9    0.000       0.000       7.450       7.449       7.444       7.434       7.425       7.413       7.394       7.361    
        7.287       7.354       7.379       7.384       7.377       7.359       7.337       7.360       7.378       7.390    
  10    0.000       0.000       7.436       7.436       7.436       7.433       7.427       7.416       7.397       7.370    
        7.340       7.359       7.375       7.379       7.367       7.332       7.248       7.334       7.371       7.387    

 HEAD WILL BE SAVED ON UNIT   51 AT END OF TIME STEP   53, STRESS PERIOD    3

 DRAWDOWN WILL BE SAVED ON UNIT   52 AT END OF TIME STEP   53, STRESS PERIOD    3
1
  VOLUMETRIC BUDGET FOR ENTIRE MODEL AT END OF TIME STEP   53, STRESS PERIOD   3
  ------------------------------------------------------------------------------

     CUMULATIVE VOLUMES      L**3       RATES FOR THIS TIME STEP      L**3/T
     ------------------                 ------------------------

           IN:                                      IN:
           ---                                      ---
             STORAGE =      974831.3125               STORAGE =        3224.1843
       CONSTANT HEAD =           0.0000         CONSTANT HEAD =           0.0000
               WELLS =           0.0000                 WELLS =           0.0000
       RIVER LEAKAGE =     1458095.5000         RIVER LEAKAGE =           0.0000
            RECHARGE =       75054.8047              RECHARGE =         343.4863

            TOTAL IN =     2507981.5000              TOTAL IN =        3567.6707

          OUT:                                     OUT:
          ----                                     ----
             STORAGE =     1569240.7500               STORAGE =         765.7062
       CONSTANT HEAD =           0.0000         CONSTANT HEAD =           0.0000
               WELLS =       31898.6230                 WELLS =         223.5936
       RIVER LEAKAGE =      906961.4375         RIVER LEAKAGE =        2577.7473
            RECHARGE =           0.0000              RECHARGE =           0.0000

           TOTAL OUT =     2508100.7500             TOTAL OUT =        3567.0471

            IN - OUT =        -119.2500              IN - OUT =           0.6235

 PERCENT DISCREPANCY =          -0.00     PERCENT DISCREPANCY =           0.02






         TIME SUMMARY AT END OF TIME STEP   53 IN STRESS PERIOD    3
                    SECONDS     MINUTES      HOURS       DAYS        YEARS
                    -----------------------------------------------------------
   TIME STEP LENGTH  86400.      1440.0      24.000      1.0000     2.73785E-03
 STRESS PERIOD TIME 4.57920E+06  76320.      1272.0      53.000     0.14511    
         TOTAL TIME 1.33056E+07 2.21760E+05  3696.0      154.00     0.42163    
1

 SOLVING FOR HEAD 

    ------------------------------------------------
       NWT REQUIRED            3 OUTER ITERATIONS 
       AND A TOTAL OF          3 INNER ITERATIONS.
    ------------------------------------------------

 OUTPUT CONTROL FOR STRESS PERIOD    3   TIME STEP   54
    SAVE HEAD FOR ALL LAYERS
    SAVE DRAWDOWN FOR ALL LAYERS
    SAVE BUDGET
    PRINT HEAD FOR ALL LAYERS
    PRINT BUDGET
1
              HEAD IN LAYER   1 AT END OF TIME STEP  54 IN STRESS PERIOD    3
  ---------------------------------------------------------------------------

            1           2           3           4           5           6           7           8           9          10
           11          12          13          14          15          16          17          18          19          20
 ........................................................................................................................
   1    0.000       0.000       0.000       0.000       0.000       7.346       7.342       7.366       7.379       7.393    
        7.423       7.514       7.626       7.367       7.609       7.476       7.391       7.375       0.000       0.000    
   2    0.000       0.000       0.000       0.000       7.419       7.429       7.399       7.459       7.462       7.468    
        7.490       7.560       7.647       7.364       7.592       7.446       7.381       7.373       0.000       0.000    
   3    0.000       0.000       0.000       7.516       7.539       7.548       7.550       7.573       7.581       7.579    
        7.589       7.630       7.707       7.362       7.562       7.371       7.368       7.373       0.000       0.000    
   4    0.000       0.000       7.681       7.633       7.611       7.364       7.368       7.365       7.362       7.362    
        7.364       7.376       7.684       7.360       7.554       7.426       7.384       7.385       0.000       0.000    
   5    0.000       0.000       7.558       7.416       7.361       7.372       7.632       7.629       7.609       7.616    
        7.622       7.365       7.361       7.368       7.537       7.438       7.398       7.402       7.417       0.000    
   6    0.000       7.358       7.359       7.362       7.455       7.626       7.594       7.533       7.505       7.509    
        7.545       7.558       7.572       7.553       7.491       7.419       7.400       7.406       7.419       0.000    
   7    0.000       7.603       7.599       7.595       7.595       7.546       7.480       7.442       7.424       7.417    
        7.428       7.460       7.475       7.465       7.425       7.397       7.392       7.397       0.000       0.000    
   8    0.000       7.528       7.514       7.508       7.493       7.460       7.432       7.415       7.399       7.380    
        7.362       7.387       7.403       7.404       7.392       7.380       7.374       7.380       0.000       0.000    
   9    0.000       0.000       7.451       7.450       7.445       7.435       7.425       7.413       7.394       7.361    
        7.287       7.354       7.379       7.385       7.377       7.359       7.336       7.360       7.378       7.390    
  10    0.000       0.000       7.436       7.437       7.436       7.433       7.427       7.416       7.397       7.370    
        7.340       7.359       7.375       7.379       7.367       7.332       7.248       7.334       7.371       7.387    

 HEAD WILL BE SAVED ON UNIT   51 AT END OF TIME STEP   54, STRESS PERIOD    3

 DRAWDOWN WILL BE SAVED ON UNIT   52 AT END OF TIME STEP   54, STRESS PERIOD    3
1
  VOLUMETRIC BUDGET FOR ENTIRE MODEL AT END OF TIME STEP   54, STRESS PERIOD   3
  ------------------------------------------------------------------------------

     CUMULATIVE VOLUMES      L**3       RATES FOR THIS TIME STEP      L**3/T
     ------------------                 ------------------------

           IN:                                      IN:
           ---                                      ---
             STORAGE =      978006.5625               STORAGE =        3175.2300
       CONSTANT HEAD =           0.0000         CONSTANT HEAD =           0.0000
               WELLS =           0.0000                 WELLS =           0.0000
       RIVER LEAKAGE =     1458095.5000         RIVER LEAKAGE =           0.0000
            RECHARGE =       75398.2891              RECHARGE =         343.4863

            TOTAL IN =     2511500.2500              TOTAL IN =        3518.7163

          OUT:                                     OUT:
          ----                                     ----
             STORAGE =     1569993.2500               STORAGE =         752.5215
       CONSTANT HEAD =           0.0000         CONSTANT HEAD =           0.0000
               WELLS =       32122.2168                 WELLS =         223.5936
       RIVER LEAKAGE =      909503.4375         RIVER LEAKAGE =        2541.9871
            RECHARGE =           0.0000              RECHARGE =           0.0000

           TOTAL OUT =     2511619.0000             TOTAL OUT =        3518.1021

            IN - OUT =        -118.7500              IN - OUT =           0.6143

 PERCENT DISCREPANCY =          -0.00     PERCENT DISCREPANCY =           0.02






         TIME SUMMARY AT END OF TIME STEP   54 IN STRESS PERIOD    3
                    SECONDS     MINUTES      HOURS       DAYS        YEARS
                    -----------------------------------------------------------
   TIME STEP LENGTH  86400.      1440.0      24.000      1.0000     2.73785E-03
 STRESS PERIOD TIME 4.66560E+06  77760.      1296.0      54.000     0.14784    
         TOTAL TIME 1.33920E+07 2.23200E+05  3720.0      155.00     0.42437    
1

 SOLVING FOR HEAD 

    ------------------------------------------------
       NWT REQUIRED            3 OUTER ITERATIONS 
       AND A TOTAL OF          3 INNER ITERATIONS.
    ------------------------------------------------

 OUTPUT CONTROL FOR STRESS PERIOD    3   TIME STEP   55
    SAVE HEAD FOR ALL LAYERS
    SAVE DRAWDOWN FOR ALL LAYERS
    SAVE BUDGET
    PRINT HEAD FOR ALL LAYERS
    PRINT BUDGET
1
              HEAD IN LAYER   1 AT END OF TIME STEP  55 IN STRESS PERIOD    3
  ---------------------------------------------------------------------------

            1           2           3           4           5           6           7           8           9          10
           11          12          13          14          15          16          17          18          19          20
 ........................................................................................................................
   1    0.000       0.000       0.000       0.000       0.000       7.346       7.343       7.366       7.380       7.393    
        7.423       7.515       7.623       7.366       7.606       7.477       7.391       7.375       0.000       0.000    
   2    0.000       0.000       0.000       0.000       7.420       7.429       7.399       7.459       7.463       7.469    
        7.490       7.560       7.645       7.364       7.590       7.446       7.381       7.373       0.000       0.000    
   3    0.000       0.000       0.000       7.517       7.538       7.546       7.547       7.570       7.579       7.578    
        7.587       7.629       7.704       7.362       7.560       7.371       7.368       7.373       0.000       0.000    
   4    0.000       0.000       7.680       7.631       7.608       7.364       7.368       7.365       7.362       7.362    
        7.364       7.376       7.679       7.360       7.553       7.427       7.385       7.385       0.000       0.000    
   5    0.000       0.000       7.553       7.414       7.361       7.372       7.629       7.627       7.607       7.614    
        7.619       7.365       7.361       7.368       7.536       7.439       7.398       7.402       7.417       0.000    
   6    0.000       7.358       7.359       7.362       7.452       7.623       7.593       7.533       7.505       7.509    
        7.545       7.557       7.570       7.551       7.491       7.419       7.400       7.406       7.419       0.000    
   7    0.000       7.601       7.597       7.593       7.593       7.546       7.480       7.442       7.424       7.418    
        7.429       7.460       7.475       7.465       7.425       7.398       7.392       7.397       0.000       0.000    
   8    0.000       7.529       7.514       7.508       7.493       7.460       7.432       7.415       7.399       7.380    
        7.363       7.388       7.403       7.405       7.392       7.380       7.374       7.380       0.000       0.000    
   9    0.000       0.000       7.451       7.450       7.445       7.435       7.425       7.413       7.394       7.361    
        7.287       7.355       7.379       7.385       7.377       7.359       7.336       7.360       7.378       7.390    
  10    0.000       0.000       7.436       7.437       7.436       7.433       7.427       7.416       7.397       7.370    
        7.340       7.359       7.375       7.379       7.367       7.332       7.248       7.334       7.371       7.387    

 HEAD WILL BE SAVED ON UNIT   51 AT END OF TIME STEP   55, STRESS PERIOD    3

 DRAWDOWN WILL BE SAVED ON UNIT   52 AT END OF TIME STEP   55, STRESS PERIOD    3
1
  VOLUMETRIC BUDGET FOR ENTIRE MODEL AT END OF TIME STEP   55, STRESS PERIOD   3
  ------------------------------------------------------------------------------

     CUMULATIVE VOLUMES      L**3       RATES FOR THIS TIME STEP      L**3/T
     ------------------                 ------------------------

           IN:                                      IN:
           ---                                      ---
             STORAGE =      981134.3125               STORAGE =        3127.7224
       CONSTANT HEAD =           0.0000         CONSTANT HEAD =           0.0000
               WELLS =           0.0000                 WELLS =           0.0000
       RIVER LEAKAGE =     1458095.5000         RIVER LEAKAGE =           0.0000
            RECHARGE =       75741.7734              RECHARGE =         343.4863

            TOTAL IN =     2514971.5000              TOTAL IN =        3471.2087

          OUT:                                     OUT:
          ----                                     ----
             STORAGE =     1570733.0000               STORAGE =         739.7365
       CONSTANT HEAD =           0.0000         CONSTANT HEAD =           0.0000
               WELLS =       32345.8105                 WELLS =         223.5936
       RIVER LEAKAGE =      912010.6875         RIVER LEAKAGE =        2507.2732
            RECHARGE =           0.0000              RECHARGE =           0.0000

           TOTAL OUT =     2515089.5000             TOTAL OUT =        3470.6033

            IN - OUT =        -118.0000              IN - OUT =           0.6055

 PERCENT DISCREPANCY =          -0.00     PERCENT DISCREPANCY =           0.02






         TIME SUMMARY AT END OF TIME STEP   55 IN STRESS PERIOD    3
                    SECONDS     MINUTES      HOURS       DAYS        YEARS
                    -----------------------------------------------------------
   TIME STEP LENGTH  86400.      1440.0      24.000      1.0000     2.73785E-03
 STRESS PERIOD TIME 4.75200E+06  79200.      1320.0      55.000     0.15058    
         TOTAL TIME 1.34784E+07 2.24640E+05  3744.0      156.00     0.42710    
1

 SOLVING FOR HEAD 

    ------------------------------------------------
       NWT REQUIRED            3 OUTER ITERATIONS 
       AND A TOTAL OF          3 INNER ITERATIONS.
    ------------------------------------------------

 OUTPUT CONTROL FOR STRESS PERIOD    3   TIME STEP   56
    SAVE HEAD FOR ALL LAYERS
    SAVE DRAWDOWN FOR ALL LAYERS
    SAVE BUDGET
    PRINT HEAD FOR ALL LAYERS
    PRINT BUDGET
1
              HEAD IN LAYER   1 AT END OF TIME STEP  56 IN STRESS PERIOD    3
  ---------------------------------------------------------------------------

            1           2           3           4           5           6           7           8           9          10
           11          12          13          14          15          16          17          18          19          20
 ........................................................................................................................
   1    0.000       0.000       0.000       0.000       0.000       7.347       7.343       7.367       7.380       7.394    
        7.424       7.515       7.620       7.366       7.603       7.477       7.392       7.375       0.000       0.000    
   2    0.000       0.000       0.000       0.000       7.421       7.429       7.399       7.459       7.463       7.469    
        7.491       7.561       7.643       7.364       7.587       7.447       7.382       7.373       0.000       0.000    
   3    0.000       0.000       0.000       7.518       7.538       7.544       7.544       7.568       7.577       7.576    
        7.586       7.627       7.702       7.362       7.559       7.372       7.368       7.373       0.000       0.000    
   4    0.000       0.000       7.679       7.629       7.605       7.364       7.367       7.365       7.362       7.362    
        7.364       7.376       7.674       7.360       7.551       7.427       7.385       7.386       0.000       0.000    
   5    0.000       0.000       7.548       7.412       7.360       7.372       7.625       7.624       7.605       7.612    
        7.616       7.365       7.361       7.368       7.535       7.439       7.399       7.402       7.417       0.000    
   6    0.000       7.358       7.359       7.362       7.450       7.620       7.593       7.533       7.506       7.509    
        7.545       7.555       7.568       7.550       7.491       7.420       7.400       7.406       7.419       0.000    
   7    0.000       7.600       7.595       7.591       7.592       7.546       7.481       7.443       7.425       7.418    
        7.429       7.460       7.475       7.465       7.425       7.398       7.392       7.397       0.000       0.000    
   8    0.000       7.529       7.515       7.509       7.494       7.461       7.433       7.415       7.399       7.380    
        7.363       7.388       7.404       7.405       7.393       7.380       7.374       7.380       0.000       0.000    
   9    0.000       0.000       7.451       7.450       7.445       7.435       7.425       7.413       7.394       7.361    
        7.287       7.355       7.379       7.385       7.377       7.359       7.336       7.360       7.378       7.390    
  10    0.000       0.000       7.436       7.437       7.436       7.433       7.427       7.416       7.397       7.370    
        7.340       7.360       7.375       7.379       7.367       7.332       7.247       7.333       7.371       7.387    

 HEAD WILL BE SAVED ON UNIT   51 AT END OF TIME STEP   56, STRESS PERIOD    3

 DRAWDOWN WILL BE SAVED ON UNIT   52 AT END OF TIME STEP   56, STRESS PERIOD    3
1
  VOLUMETRIC BUDGET FOR ENTIRE MODEL AT END OF TIME STEP   56, STRESS PERIOD   3
  ------------------------------------------------------------------------------

     CUMULATIVE VOLUMES      L**3       RATES FOR THIS TIME STEP      L**3/T
     ------------------                 ------------------------

           IN:                                      IN:
           ---                                      ---
             STORAGE =      984216.0000               STORAGE =        3081.6863
       CONSTANT HEAD =           0.0000         CONSTANT HEAD =           0.0000
               WELLS =           0.0000                 WELLS =           0.0000
       RIVER LEAKAGE =     1458095.5000         RIVER LEAKAGE =           0.0000
            RECHARGE =       76085.2578              RECHARGE =         343.4863

            TOTAL IN =     2518396.7500              TOTAL IN =        3425.1726

          OUT:                                     OUT:
          ----                                     ----
             STORAGE =     1571460.3750               STORAGE =         727.4015
       CONSTANT HEAD =           0.0000         CONSTANT HEAD =           0.0000
               WELLS =       32569.4043                 WELLS =         223.5936
       RIVER LEAKAGE =      914484.2500         RIVER LEAKAGE =        2473.5811
            RECHARGE =           0.0000              RECHARGE =           0.0000

           TOTAL OUT =     2518514.0000             TOTAL OUT =        3424.5762

            IN - OUT =        -117.2500              IN - OUT =           0.5964

 PERCENT DISCREPANCY =          -0.00     PERCENT DISCREPANCY =           0.02






         TIME SUMMARY AT END OF TIME STEP   56 IN STRESS PERIOD    3
                    SECONDS     MINUTES      HOURS       DAYS        YEARS
                    -----------------------------------------------------------
   TIME STEP LENGTH  86400.      1440.0      24.000      1.0000     2.73785E-03
 STRESS PERIOD TIME 4.83840E+06  80640.      1344.0      56.000     0.15332    
         TOTAL TIME 1.35648E+07 2.26080E+05  3768.0      157.00     0.42984    
1

 SOLVING FOR HEAD 

    ------------------------------------------------
       NWT REQUIRED            3 OUTER ITERATIONS 
       AND A TOTAL OF          3 INNER ITERATIONS.
    ------------------------------------------------

 OUTPUT CONTROL FOR STRESS PERIOD    3   TIME STEP   57
    SAVE HEAD FOR ALL LAYERS
    SAVE DRAWDOWN FOR ALL LAYERS
    SAVE BUDGET
    PRINT HEAD FOR ALL LAYERS
    PRINT BUDGET
1
              HEAD IN LAYER   1 AT END OF TIME STEP  57 IN STRESS PERIOD    3
  ---------------------------------------------------------------------------

            1           2           3           4           5           6           7           8           9          10
           11          12          13          14          15          16          17          18          19          20
 ........................................................................................................................
   1    0.000       0.000       0.000       0.000       0.000       7.347       7.344       7.367       7.381       7.394    
        7.425       7.516       7.618       7.366       7.600       7.477       7.392       7.375       0.000       0.000    
   2    0.000       0.000       0.000       0.000       7.421       7.429       7.398       7.459       7.463       7.469    
        7.491       7.561       7.641       7.364       7.585       7.447       7.382       7.373       0.000       0.000    
   3    0.000       0.000       0.000       7.519       7.538       7.542       7.541       7.565       7.575       7.574    
        7.584       7.625       7.699       7.362       7.557       7.372       7.368       7.374       0.000       0.000    
   4    0.000       0.000       7.679       7.628       7.602       7.363       7.367       7.365       7.362       7.362    
        7.364       7.376       7.670       7.360       7.550       7.427       7.385       7.386       0.000       0.000    
   5    0.000       0.000       7.544       7.411       7.360       7.372       7.621       7.622       7.603       7.610    
        7.613       7.365       7.361       7.368       7.533       7.439       7.399       7.402       7.417       0.000    
   6    0.000       7.358       7.359       7.362       7.447       7.617       7.592       7.533       7.506       7.510    
        7.544       7.554       7.566       7.548       7.491       7.420       7.400       7.406       7.419       0.000    
   7    0.000       7.598       7.594       7.589       7.590       7.546       7.481       7.443       7.425       7.418    
        7.429       7.460       7.475       7.465       7.426       7.398       7.392       7.397       0.000       0.000    
   8    0.000       7.530       7.515       7.509       7.494       7.461       7.433       7.415       7.400       7.381    
        7.363       7.388       7.404       7.405       7.393       7.380       7.374       7.380       0.000       0.000    
   9    0.000       0.000       7.452       7.450       7.445       7.435       7.425       7.413       7.394       7.361    
        7.287       7.355       7.379       7.385       7.377       7.359       7.336       7.360       7.378       7.390    
  10    0.000       0.000       7.437       7.437       7.436       7.433       7.427       7.416       7.397       7.370    
        7.340       7.360       7.375       7.379       7.367       7.332       7.247       7.333       7.371       7.387    

 HEAD WILL BE SAVED ON UNIT   51 AT END OF TIME STEP   57, STRESS PERIOD    3

 DRAWDOWN WILL BE SAVED ON UNIT   52 AT END OF TIME STEP   57, STRESS PERIOD    3
1
  VOLUMETRIC BUDGET FOR ENTIRE MODEL AT END OF TIME STEP   57, STRESS PERIOD   3
  ------------------------------------------------------------------------------

     CUMULATIVE VOLUMES      L**3       RATES FOR THIS TIME STEP      L**3/T
     ------------------                 ------------------------

           IN:                                      IN:
           ---                                      ---
             STORAGE =      987252.7500               STORAGE =        3036.7793
       CONSTANT HEAD =           0.0000         CONSTANT HEAD =           0.0000
               WELLS =           0.0000                 WELLS =           0.0000
       RIVER LEAKAGE =     1458095.5000         RIVER LEAKAGE =           0.0000
            RECHARGE =       76428.7422              RECHARGE =         343.4863

            TOTAL IN =     2521777.0000              TOTAL IN =        3380.2656

          OUT:                                     OUT:
          ----                                     ----
             STORAGE =     1572175.6250               STORAGE =         715.2369
       CONSTANT HEAD =           0.0000         CONSTANT HEAD =           0.0000
               WELLS =       32792.9961                 WELLS =         223.5936
       RIVER LEAKAGE =      916925.1250         RIVER LEAKAGE =        2440.8469
            RECHARGE =           0.0000              RECHARGE =           0.0000

           TOTAL OUT =     2521893.7500             TOTAL OUT =        3379.6772

            IN - OUT =        -116.7500              IN - OUT =           0.5884

 PERCENT DISCREPANCY =          -0.00     PERCENT DISCREPANCY =           0.02






         TIME SUMMARY AT END OF TIME STEP   57 IN STRESS PERIOD    3
                    SECONDS     MINUTES      HOURS       DAYS        YEARS
                    -----------------------------------------------------------
   TIME STEP LENGTH  86400.      1440.0      24.000      1.0000     2.73785E-03
 STRESS PERIOD TIME 4.92480E+06  82080.      1368.0      57.000     0.15606    
         TOTAL TIME 1.36512E+07 2.27520E+05  3792.0      158.00     0.43258    
1

 SOLVING FOR HEAD 

    ------------------------------------------------
       NWT REQUIRED            3 OUTER ITERATIONS 
       AND A TOTAL OF          3 INNER ITERATIONS.
    ------------------------------------------------

 OUTPUT CONTROL FOR STRESS PERIOD    3   TIME STEP   58
    SAVE HEAD FOR ALL LAYERS
    SAVE DRAWDOWN FOR ALL LAYERS
    SAVE BUDGET
    PRINT HEAD FOR ALL LAYERS
    PRINT BUDGET
1
              HEAD IN LAYER   1 AT END OF TIME STEP  58 IN STRESS PERIOD    3
  ---------------------------------------------------------------------------

            1           2           3           4           5           6           7           8           9          10
           11          12          13          14          15          16          17          18          19          20
 ........................................................................................................................
   1    0.000       0.000       0.000       0.000       0.000       7.348       7.344       7.368       7.381       7.395    
        7.425       7.516       7.615       7.366       7.598       7.477       7.392       7.375       0.000       0.000    
   2    0.000       0.000       0.000       0.000       7.422       7.429       7.398       7.459       7.463       7.470    
        7.492       7.561       7.639       7.364       7.583       7.447       7.382       7.373       0.000       0.000    
   3    0.000       0.000       0.000       7.520       7.537       7.540       7.539       7.563       7.574       7.572    
        7.582       7.624       7.697       7.362       7.555       7.372       7.369       7.374       0.000       0.000    
   4    0.000       0.000       7.677       7.626       7.599       7.363       7.367       7.365       7.362       7.362    
        7.364       7.375       7.665       7.360       7.548       7.427       7.385       7.386       0.000       0.000    
   5    0.000       0.000       7.540       7.409       7.360       7.371       7.618       7.620       7.602       7.608    
        7.610       7.365       7.361       7.368       7.532       7.439       7.399       7.402       7.417       0.000    
   6    0.000       7.358       7.359       7.362       7.445       7.615       7.591       7.533       7.506       7.510    
        7.544       7.552       7.564       7.546       7.491       7.420       7.400       7.406       7.419       0.000    
   7    0.000       7.596       7.592       7.588       7.588       7.546       7.482       7.444       7.425       7.419    
        7.430       7.460       7.475       7.465       7.426       7.398       7.392       7.397       0.000       0.000    
   8    0.000       7.530       7.515       7.509       7.494       7.462       7.433       7.416       7.400       7.381    
        7.363       7.388       7.404       7.405       7.393       7.380       7.374       7.380       0.000       0.000    
   9    0.000       0.000       7.452       7.451       7.446       7.435       7.425       7.413       7.394       7.361    
        7.287       7.355       7.379       7.385       7.377       7.359       7.336       7.360       7.378       7.390    
  10    0.000       0.000       7.437       7.437       7.436       7.433       7.427       7.416       7.397       7.370    
        7.340       7.360       7.375       7.379       7.367       7.332       7.247       7.333       7.371       7.387    

 HEAD WILL BE SAVED ON UNIT   51 AT END OF TIME STEP   58, STRESS PERIOD    3

 DRAWDOWN WILL BE SAVED ON UNIT   52 AT END OF TIME STEP   58, STRESS PERIOD    3
1
  VOLUMETRIC BUDGET FOR ENTIRE MODEL AT END OF TIME STEP   58, STRESS PERIOD   3
  ------------------------------------------------------------------------------

     CUMULATIVE VOLUMES      L**3       RATES FOR THIS TIME STEP      L**3/T
     ------------------                 ------------------------

           IN:                                      IN:
           ---                                      ---
             STORAGE =      990245.7500               STORAGE =        2992.9954
       CONSTANT HEAD =           0.0000         CONSTANT HEAD =           0.0000
               WELLS =           0.0000                 WELLS =           0.0000
       RIVER LEAKAGE =     1458095.5000         RIVER LEAKAGE =           0.0000
            RECHARGE =       76772.2266              RECHARGE =         343.4863

            TOTAL IN =     2525113.5000              TOTAL IN =        3336.4817

          OUT:                                     OUT:
          ----                                     ----
             STORAGE =     1572878.8750               STORAGE =         703.2693
       CONSTANT HEAD =           0.0000         CONSTANT HEAD =           0.0000
               WELLS =       33016.5898                 WELLS =         223.5936
       RIVER LEAKAGE =      919334.1875         RIVER LEAKAGE =        2409.0386
            RECHARGE =           0.0000              RECHARGE =           0.0000

           TOTAL OUT =     2525229.7500             TOTAL OUT =        3335.9014

            IN - OUT =        -116.2500              IN - OUT =           0.5803

 PERCENT DISCREPANCY =          -0.00     PERCENT DISCREPANCY =           0.02






         TIME SUMMARY AT END OF TIME STEP   58 IN STRESS PERIOD    3
                    SECONDS     MINUTES      HOURS       DAYS        YEARS
                    -----------------------------------------------------------
   TIME STEP LENGTH  86400.      1440.0      24.000      1.0000     2.73785E-03
 STRESS PERIOD TIME 5.01120E+06  83520.      1392.0      58.000     0.15880    
         TOTAL TIME 1.37376E+07 2.28960E+05  3816.0      159.00     0.43532    
1

 SOLVING FOR HEAD 

    ------------------------------------------------
       NWT REQUIRED            3 OUTER ITERATIONS 
       AND A TOTAL OF          3 INNER ITERATIONS.
    ------------------------------------------------

 OUTPUT CONTROL FOR STRESS PERIOD    3   TIME STEP   59
    SAVE HEAD FOR ALL LAYERS
    SAVE DRAWDOWN FOR ALL LAYERS
    SAVE BUDGET
    PRINT HEAD FOR ALL LAYERS
    PRINT BUDGET
1
              HEAD IN LAYER   1 AT END OF TIME STEP  59 IN STRESS PERIOD    3
  ---------------------------------------------------------------------------

            1           2           3           4           5           6           7           8           9          10
           11          12          13          14          15          16          17          18          19          20
 ........................................................................................................................
   1    0.000       0.000       0.000       0.000       0.000       7.348       7.345       7.368       7.382       7.396    
        7.426       7.516       7.613       7.366       7.595       7.477       7.393       7.375       0.000       0.000    
   2    0.000       0.000       0.000       0.000       7.423       7.429       7.398       7.459       7.464       7.470    
        7.492       7.561       7.637       7.364       7.581       7.447       7.382       7.373       0.000       0.000    
   3    0.000       0.000       0.000       7.520       7.537       7.538       7.536       7.561       7.572       7.571    
        7.581       7.622       7.694       7.362       7.554       7.372       7.369       7.374       0.000       0.000    
   4    0.000       0.000       7.676       7.624       7.596       7.363       7.367       7.365       7.361       7.362    
        7.364       7.375       7.661       7.360       7.547       7.427       7.386       7.386       0.000       0.000    
   5    0.000       0.000       7.536       7.408       7.360       7.371       7.615       7.617       7.600       7.606    
        7.607       7.365       7.360       7.368       7.531       7.439       7.399       7.402       7.417       0.000    
   6    0.000       7.358       7.359       7.361       7.442       7.612       7.591       7.534       7.506       7.510    
        7.544       7.551       7.563       7.545       7.491       7.420       7.400       7.406       7.419       0.000    
   7    0.000       7.594       7.590       7.586       7.587       7.545       7.482       7.444       7.426       7.419    
        7.430       7.460       7.475       7.465       7.426       7.398       7.392       7.397       0.000       0.000    
   8    0.000       7.530       7.515       7.509       7.494       7.462       7.434       7.416       7.400       7.381    
        7.363       7.388       7.404       7.406       7.393       7.380       7.374       7.380       0.000       0.000    
   9    0.000       0.000       7.452       7.451       7.446       7.436       7.425       7.413       7.394       7.361    
        7.287       7.355       7.379       7.385       7.377       7.359       7.336       7.360       7.378       7.390    
  10    0.000       0.000       7.437       7.437       7.436       7.433       7.427       7.416       7.397       7.370    
        7.340       7.360       7.375       7.379       7.367       7.332       7.247       7.333       7.371       7.387    

 HEAD WILL BE SAVED ON UNIT   51 AT END OF TIME STEP   59, STRESS PERIOD    3

 DRAWDOWN WILL BE SAVED ON UNIT   52 AT END OF TIME STEP   59, STRESS PERIOD    3
1
  VOLUMETRIC BUDGET FOR ENTIRE MODEL AT END OF TIME STEP   59, STRESS PERIOD   3
  ------------------------------------------------------------------------------

     CUMULATIVE VOLUMES      L**3       RATES FOR THIS TIME STEP      L**3/T
     ------------------                 ------------------------

           IN:                                      IN:
           ---                                      ---
             STORAGE =      993196.0000               STORAGE =        2950.2273
       CONSTANT HEAD =           0.0000         CONSTANT HEAD =           0.0000
               WELLS =           0.0000                 WELLS =           0.0000
       RIVER LEAKAGE =     1458095.5000         RIVER LEAKAGE =           0.0000
            RECHARGE =       77115.7109              RECHARGE =         343.4863

            TOTAL IN =     2528407.2500              TOTAL IN =        3293.7136

          OUT:                                     OUT:
          ----                                     ----
             STORAGE =     1573570.3750               STORAGE =         691.4528
       CONSTANT HEAD =           0.0000         CONSTANT HEAD =           0.0000
               WELLS =       33240.1836                 WELLS =         223.5936
       RIVER LEAKAGE =      921712.3125         RIVER LEAKAGE =        2378.0952
            RECHARGE =           0.0000              RECHARGE =           0.0000

           TOTAL OUT =     2528522.7500             TOTAL OUT =        3293.1416

            IN - OUT =        -115.5000              IN - OUT =           0.5720

 PERCENT DISCREPANCY =          -0.00     PERCENT DISCREPANCY =           0.02






         TIME SUMMARY AT END OF TIME STEP   59 IN STRESS PERIOD    3
                    SECONDS     MINUTES      HOURS       DAYS        YEARS
                    -----------------------------------------------------------
   TIME STEP LENGTH  86400.      1440.0      24.000      1.0000     2.73785E-03
 STRESS PERIOD TIME 5.09760E+06  84960.      1416.0      59.000     0.16153    
         TOTAL TIME 1.38240E+07 2.30400E+05  3840.0      160.00     0.43806    
1

 SOLVING FOR HEAD 

    ------------------------------------------------
       NWT REQUIRED            3 OUTER ITERATIONS 
       AND A TOTAL OF          3 INNER ITERATIONS.
    ------------------------------------------------

 OUTPUT CONTROL FOR STRESS PERIOD    3   TIME STEP   60
    SAVE HEAD FOR ALL LAYERS
    SAVE DRAWDOWN FOR ALL LAYERS
    SAVE BUDGET
    PRINT HEAD FOR ALL LAYERS
    PRINT BUDGET
1
              HEAD IN LAYER   1 AT END OF TIME STEP  60 IN STRESS PERIOD    3
  ---------------------------------------------------------------------------

            1           2           3           4           5           6           7           8           9          10
           11          12          13          14          15          16          17          18          19          20
 ........................................................................................................................
   1    0.000       0.000       0.000       0.000       0.000       7.349       7.345       7.369       7.382       7.396    
        7.427       7.517       7.610       7.366       7.592       7.477       7.393       7.376       0.000       0.000    
   2    0.000       0.000       0.000       0.000       7.424       7.429       7.397       7.459       7.464       7.470    
        7.492       7.561       7.635       7.364       7.578       7.447       7.383       7.373       0.000       0.000    
   3    0.000       0.000       0.000       7.521       7.537       7.536       7.534       7.558       7.570       7.569    
        7.579       7.621       7.692       7.362       7.552       7.372       7.369       7.374       0.000       0.000    
   4    0.000       0.000       7.675       7.623       7.593       7.363       7.367       7.365       7.361       7.362    
        7.363       7.375       7.657       7.360       7.545       7.428       7.386       7.386       0.000       0.000    
   5    0.000       0.000       7.531       7.406       7.360       7.371       7.611       7.615       7.598       7.604    
        7.604       7.364       7.360       7.367       7.529       7.439       7.399       7.402       7.417       0.000    
   6    0.000       7.358       7.359       7.361       7.440       7.609       7.590       7.534       7.507       7.510    
        7.543       7.549       7.561       7.543       7.491       7.421       7.401       7.406       7.419       0.000    
   7    0.000       7.593       7.588       7.584       7.585       7.545       7.483       7.445       7.426       7.420    
        7.431       7.460       7.475       7.465       7.427       7.399       7.392       7.397       0.000       0.000    
   8    0.000       7.531       7.515       7.509       7.495       7.462       7.434       7.416       7.400       7.381    
        7.364       7.389       7.405       7.406       7.393       7.381       7.374       7.380       0.000       0.000    
   9    0.000       0.000       7.453       7.451       7.446       7.436       7.425       7.413       7.394       7.361    
        7.287       7.355       7.379       7.385       7.377       7.359       7.336       7.360       7.377       7.390    
  10    0.000       0.000       7.437       7.437       7.436       7.433       7.427       7.416       7.397       7.370    
        7.340       7.360       7.375       7.379       7.367       7.331       7.247       7.333       7.371       7.387    

 HEAD WILL BE SAVED ON UNIT   51 AT END OF TIME STEP   60, STRESS PERIOD    3

 DRAWDOWN WILL BE SAVED ON UNIT   52 AT END OF TIME STEP   60, STRESS PERIOD    3
1
  VOLUMETRIC BUDGET FOR ENTIRE MODEL AT END OF TIME STEP   60, STRESS PERIOD   3
  ------------------------------------------------------------------------------

     CUMULATIVE VOLUMES      L**3       RATES FOR THIS TIME STEP      L**3/T
     ------------------                 ------------------------

           IN:                                      IN:
           ---                                      ---
             STORAGE =      996104.4375               STORAGE =        2908.4219
       CONSTANT HEAD =           0.0000         CONSTANT HEAD =           0.0000
               WELLS =           0.0000                 WELLS =           0.0000
       RIVER LEAKAGE =     1458095.5000         RIVER LEAKAGE =           0.0000
            RECHARGE =       77459.1953              RECHARGE =         343.4863

            TOTAL IN =     2531659.2500              TOTAL IN =        3251.9082

          OUT:                                     OUT:
          ----                                     ----
             STORAGE =     1574250.1250               STORAGE =         679.7872
       CONSTANT HEAD =           0.0000         CONSTANT HEAD =           0.0000
               WELLS =       33463.7773                 WELLS =         223.5936
       RIVER LEAKAGE =      924060.2500         RIVER LEAKAGE =        2347.9631
            RECHARGE =           0.0000              RECHARGE =           0.0000

           TOTAL OUT =     2531774.0000             TOTAL OUT =        3251.3438

            IN - OUT =        -114.7500              IN - OUT =           0.5645

 PERCENT DISCREPANCY =          -0.00     PERCENT DISCREPANCY =           0.02






         TIME SUMMARY AT END OF TIME STEP   60 IN STRESS PERIOD    3
                    SECONDS     MINUTES      HOURS       DAYS        YEARS
                    -----------------------------------------------------------
   TIME STEP LENGTH  86400.      1440.0      24.000      1.0000     2.73785E-03
 STRESS PERIOD TIME 5.18400E+06  86400.      1440.0      60.000     0.16427    
         TOTAL TIME 1.39104E+07 2.31840E+05  3864.0      161.00     0.44079    
1

 SOLVING FOR HEAD 

    ------------------------------------------------
       NWT REQUIRED            3 OUTER ITERATIONS 
       AND A TOTAL OF          3 INNER ITERATIONS.
    ------------------------------------------------

 OUTPUT CONTROL FOR STRESS PERIOD    3   TIME STEP   61
    SAVE HEAD FOR ALL LAYERS
    SAVE DRAWDOWN FOR ALL LAYERS
    SAVE BUDGET
    PRINT HEAD FOR ALL LAYERS
    PRINT BUDGET
1
              HEAD IN LAYER   1 AT END OF TIME STEP  61 IN STRESS PERIOD    3
  ---------------------------------------------------------------------------

            1           2           3           4           5           6           7           8           9          10
           11          12          13          14          15          16          17          18          19          20
 ........................................................................................................................
   1    0.000       0.000       0.000       0.000       0.000       7.349       7.346       7.370       7.383       7.397    
        7.428       7.517       7.608       7.366       7.590       7.477       7.393       7.376       0.000       0.000    
   2    0.000       0.000       0.000       0.000       7.424       7.429       7.397       7.459       7.464       7.471    
        7.493       7.562       7.633       7.364       7.576       7.447       7.383       7.374       0.000       0.000    
   3    0.000       0.000       0.000       7.522       7.536       7.534       7.531       7.556       7.568       7.567    
        7.578       7.619       7.689       7.362       7.550       7.373       7.369       7.374       0.000       0.000    
   4    0.000       0.000       7.674       7.621       7.590       7.363       7.367       7.365       7.361       7.362    
        7.363       7.375       7.653       7.360       7.544       7.428       7.386       7.386       0.000       0.000    
   5    0.000       0.000       7.528       7.405       7.360       7.371       7.608       7.613       7.596       7.602    
        7.601       7.364       7.360       7.367       7.528       7.440       7.399       7.402       7.417       0.000    
   6    0.000       7.358       7.359       7.361       7.438       7.607       7.590       7.534       7.507       7.511    
        7.543       7.548       7.559       7.541       7.490       7.421       7.401       7.406       7.419       0.000    
   7    0.000       7.591       7.587       7.583       7.584       7.545       7.484       7.445       7.427       7.420    
        7.431       7.460       7.475       7.465       7.427       7.399       7.392       7.397       0.000       0.000    
   8    0.000       7.531       7.515       7.509       7.495       7.463       7.434       7.416       7.400       7.381    
        7.364       7.389       7.405       7.406       7.393       7.381       7.374       7.380       0.000       0.000    
   9    0.000       0.000       7.453       7.452       7.446       7.436       7.425       7.413       7.394       7.361    
        7.287       7.355       7.379       7.385       7.377       7.359       7.336       7.360       7.377       7.390    
  10    0.000       0.000       7.437       7.437       7.436       7.433       7.427       7.416       7.397       7.370    
        7.340       7.360       7.375       7.379       7.367       7.331       7.247       7.333       7.371       7.387    

 HEAD WILL BE SAVED ON UNIT   51 AT END OF TIME STEP   61, STRESS PERIOD    3

 DRAWDOWN WILL BE SAVED ON UNIT   52 AT END OF TIME STEP   61, STRESS PERIOD    3
1
  VOLUMETRIC BUDGET FOR ENTIRE MODEL AT END OF TIME STEP   61, STRESS PERIOD   3
  ------------------------------------------------------------------------------

     CUMULATIVE VOLUMES      L**3       RATES FOR THIS TIME STEP      L**3/T
     ------------------                 ------------------------

           IN:                                      IN:
           ---                                      ---
             STORAGE =      998972.0000               STORAGE =        2867.5674
       CONSTANT HEAD =           0.0000         CONSTANT HEAD =           0.0000
               WELLS =           0.0000                 WELLS =           0.0000
       RIVER LEAKAGE =     1458095.5000         RIVER LEAKAGE =           0.0000
            RECHARGE =       77802.6797              RECHARGE =         343.4863

            TOTAL IN =     2534870.2500              TOTAL IN =        3211.0537

          OUT:                                     OUT:
          ----                                     ----
             STORAGE =     1574918.3750               STORAGE =         668.2701
       CONSTANT HEAD =           0.0000         CONSTANT HEAD =           0.0000
               WELLS =       33687.3711                 WELLS =         223.5936
       RIVER LEAKAGE =      926378.8750         RIVER LEAKAGE =        2318.6333
            RECHARGE =           0.0000              RECHARGE =           0.0000

           TOTAL OUT =     2534984.5000             TOTAL OUT =        3210.4971

            IN - OUT =        -114.2500              IN - OUT =           0.5566

 PERCENT DISCREPANCY =          -0.00     PERCENT DISCREPANCY =           0.02






         TIME SUMMARY AT END OF TIME STEP   61 IN STRESS PERIOD    3
                    SECONDS     MINUTES      HOURS       DAYS        YEARS
                    -----------------------------------------------------------
   TIME STEP LENGTH  86400.      1440.0      24.000      1.0000     2.73785E-03
 STRESS PERIOD TIME 5.27040E+06  87840.      1464.0      61.000     0.16701    
         TOTAL TIME 1.39968E+07 2.33280E+05  3888.0      162.00     0.44353    
1

 SOLVING FOR HEAD 

    ------------------------------------------------
       NWT REQUIRED            3 OUTER ITERATIONS 
       AND A TOTAL OF          3 INNER ITERATIONS.
    ------------------------------------------------

 OUTPUT CONTROL FOR STRESS PERIOD    3   TIME STEP   62
    SAVE HEAD FOR ALL LAYERS
    SAVE DRAWDOWN FOR ALL LAYERS
    SAVE BUDGET
    PRINT HEAD FOR ALL LAYERS
    PRINT BUDGET
1
              HEAD IN LAYER   1 AT END OF TIME STEP  62 IN STRESS PERIOD    3
  ---------------------------------------------------------------------------

            1           2           3           4           5           6           7           8           9          10
           11          12          13          14          15          16          17          18          19          20
 ........................................................................................................................
   1    0.000       0.000       0.000       0.000       0.000       7.350       7.346       7.370       7.383       7.397    
        7.428       7.517       7.605       7.365       7.587       7.477       7.394       7.376       0.000       0.000    
   2    0.000       0.000       0.000       0.000       7.425       7.429       7.397       7.459       7.464       7.471    
        7.493       7.562       7.631       7.363       7.574       7.447       7.383       7.374       0.000       0.000    
   3    0.000       0.000       0.000       7.522       7.536       7.533       7.529       7.554       7.566       7.566    
        7.576       7.617       7.687       7.362       7.549       7.373       7.370       7.374       0.000       0.000    
   4    0.000       0.000       7.673       7.619       7.588       7.363       7.366       7.364       7.361       7.362    
        7.363       7.374       7.649       7.360       7.542       7.428       7.386       7.386       0.000       0.000    
   5    0.000       0.000       7.524       7.404       7.360       7.371       7.605       7.611       7.595       7.600    
        7.598       7.364       7.360       7.367       7.527       7.440       7.400       7.402       7.417       0.000    
   6    0.000       7.358       7.359       7.361       7.436       7.604       7.589       7.534       7.507       7.511    
        7.543       7.546       7.557       7.540       7.490       7.421       7.401       7.406       7.419       0.000    
   7    0.000       7.589       7.585       7.581       7.582       7.545       7.484       7.446       7.427       7.421    
        7.431       7.460       7.475       7.465       7.427       7.399       7.392       7.397       0.000       0.000    
   8    0.000       7.531       7.516       7.509       7.495       7.463       7.435       7.416       7.400       7.381    
        7.364       7.389       7.405       7.406       7.393       7.381       7.374       7.380       0.000       0.000    
   9    0.000       0.000       7.453       7.452       7.447       7.436       7.425       7.413       7.394       7.361    
        7.287       7.355       7.379       7.385       7.377       7.359       7.336       7.359       7.377       7.390    
  10    0.000       0.000       7.437       7.438       7.437       7.433       7.427       7.416       7.397       7.370    
        7.340       7.360       7.375       7.379       7.367       7.331       7.247       7.333       7.371       7.387    

 HEAD WILL BE SAVED ON UNIT   51 AT END OF TIME STEP   62, STRESS PERIOD    3

 DRAWDOWN WILL BE SAVED ON UNIT   52 AT END OF TIME STEP   62, STRESS PERIOD    3
1
  VOLUMETRIC BUDGET FOR ENTIRE MODEL AT END OF TIME STEP   62, STRESS PERIOD   3
  ------------------------------------------------------------------------------

     CUMULATIVE VOLUMES      L**3       RATES FOR THIS TIME STEP      L**3/T
     ------------------                 ------------------------

           IN:                                      IN:
           ---                                      ---
             STORAGE =     1001799.6250               STORAGE =        2827.6169
       CONSTANT HEAD =           0.0000         CONSTANT HEAD =           0.0000
               WELLS =           0.0000                 WELLS =           0.0000
       RIVER LEAKAGE =     1458095.5000         RIVER LEAKAGE =           0.0000
            RECHARGE =       78146.1641              RECHARGE =         343.4863

            TOTAL IN =     2538041.2500              TOTAL IN =        3171.1033

          OUT:                                     OUT:
          ----                                     ----
             STORAGE =     1575575.2500               STORAGE =         656.9046
       CONSTANT HEAD =           0.0000         CONSTANT HEAD =           0.0000
               WELLS =       33910.9648                 WELLS =         223.5936
       RIVER LEAKAGE =      928668.9375         RIVER LEAKAGE =        2290.0557
            RECHARGE =           0.0000              RECHARGE =           0.0000

           TOTAL OUT =     2538155.2500             TOTAL OUT =        3170.5537

            IN - OUT =        -114.0000              IN - OUT =           0.5496

 PERCENT DISCREPANCY =          -0.00     PERCENT DISCREPANCY =           0.02






         TIME SUMMARY AT END OF TIME STEP   62 IN STRESS PERIOD    3
                    SECONDS     MINUTES      HOURS       DAYS        YEARS
                    -----------------------------------------------------------
   TIME STEP LENGTH  86400.      1440.0      24.000      1.0000     2.73785E-03
 STRESS PERIOD TIME 5.35680E+06  89280.      1488.0      62.000     0.16975    
         TOTAL TIME 1.40832E+07 2.34720E+05  3912.0      163.00     0.44627    
1

 SOLVING FOR HEAD 

    ------------------------------------------------
       NWT REQUIRED            3 OUTER ITERATIONS 
       AND A TOTAL OF          3 INNER ITERATIONS.
    ------------------------------------------------

 OUTPUT CONTROL FOR STRESS PERIOD    3   TIME STEP   63
    SAVE HEAD FOR ALL LAYERS
    SAVE DRAWDOWN FOR ALL LAYERS
    SAVE BUDGET
    PRINT HEAD FOR ALL LAYERS
    PRINT BUDGET
1
              HEAD IN LAYER   1 AT END OF TIME STEP  63 IN STRESS PERIOD    3
  ---------------------------------------------------------------------------

            1           2           3           4           5           6           7           8           9          10
           11          12          13          14          15          16          17          18          19          20
 ........................................................................................................................
   1    0.000       0.000       0.000       0.000       0.000       7.350       7.347       7.371       7.384       7.398    
        7.429       7.518       7.603       7.365       7.585       7.477       7.394       7.376       0.000       0.000    
   2    0.000       0.000       0.000       0.000       7.426       7.429       7.397       7.459       7.464       7.471    
        7.494       7.562       7.629       7.363       7.572       7.447       7.384       7.374       0.000       0.000    
   3    0.000       0.000       0.000       7.523       7.535       7.531       7.527       7.552       7.564       7.564    
        7.575       7.616       7.685       7.362       7.547       7.373       7.370       7.374       0.000       0.000    
   4    0.000       0.000       7.672       7.617       7.585       7.363       7.366       7.364       7.361       7.362    
        7.363       7.374       7.644       7.360       7.541       7.428       7.387       7.386       0.000       0.000    
   5    0.000       0.000       7.520       7.402       7.360       7.370       7.602       7.608       7.593       7.598    
        7.596       7.364       7.360       7.367       7.526       7.440       7.400       7.402       7.417       0.000    
   6    0.000       7.358       7.359       7.361       7.434       7.601       7.588       7.534       7.507       7.511    
        7.542       7.545       7.556       7.538       7.490       7.421       7.401       7.406       7.419       0.000    
   7    0.000       7.588       7.583       7.579       7.581       7.545       7.485       7.446       7.428       7.421    
        7.432       7.461       7.475       7.465       7.427       7.399       7.392       7.397       0.000       0.000    
   8    0.000       7.532       7.516       7.509       7.495       7.464       7.435       7.417       7.401       7.382    
        7.364       7.389       7.405       7.406       7.394       7.381       7.374       7.380       0.000       0.000    
   9    0.000       0.000       7.454       7.452       7.447       7.436       7.426       7.413       7.395       7.361    
        7.287       7.355       7.379       7.385       7.377       7.359       7.336       7.359       7.377       7.390    
  10    0.000       0.000       7.437       7.438       7.437       7.433       7.427       7.416       7.397       7.370    
        7.340       7.360       7.375       7.379       7.367       7.331       7.247       7.333       7.371       7.387    

 HEAD WILL BE SAVED ON UNIT   51 AT END OF TIME STEP   63, STRESS PERIOD    3

 DRAWDOWN WILL BE SAVED ON UNIT   52 AT END OF TIME STEP   63, STRESS PERIOD    3
1
  VOLUMETRIC BUDGET FOR ENTIRE MODEL AT END OF TIME STEP   63, STRESS PERIOD   3
  ------------------------------------------------------------------------------

     CUMULATIVE VOLUMES      L**3       RATES FOR THIS TIME STEP      L**3/T
     ------------------                 ------------------------

           IN:                                      IN:
           ---                                      ---
             STORAGE =     1004588.1875               STORAGE =        2788.5415
       CONSTANT HEAD =           0.0000         CONSTANT HEAD =           0.0000
               WELLS =           0.0000                 WELLS =           0.0000
       RIVER LEAKAGE =     1458095.5000         RIVER LEAKAGE =           0.0000
            RECHARGE =       78489.6484              RECHARGE =         343.4863

            TOTAL IN =     2541173.5000              TOTAL IN =        3132.0278

          OUT:                                     OUT:
          ----                                     ----
             STORAGE =     1576221.0000               STORAGE =         645.6888
       CONSTANT HEAD =           0.0000         CONSTANT HEAD =           0.0000
               WELLS =       34134.5586                 WELLS =         223.5936
       RIVER LEAKAGE =      930931.1250         RIVER LEAKAGE =        2262.2031
            RECHARGE =           0.0000              RECHARGE =           0.0000

           TOTAL OUT =     2541286.5000             TOTAL OUT =        3131.4854

            IN - OUT =        -113.0000              IN - OUT =           0.5425

 PERCENT DISCREPANCY =          -0.00     PERCENT DISCREPANCY =           0.02






         TIME SUMMARY AT END OF TIME STEP   63 IN STRESS PERIOD    3
                    SECONDS     MINUTES      HOURS       DAYS        YEARS
                    -----------------------------------------------------------
   TIME STEP LENGTH  86400.      1440.0      24.000      1.0000     2.73785E-03
 STRESS PERIOD TIME 5.44320E+06  90720.      1512.0      63.000     0.17248    
         TOTAL TIME 1.41696E+07 2.36160E+05  3936.0      164.00     0.44901    
1

 SOLVING FOR HEAD 

    ------------------------------------------------
       NWT REQUIRED            3 OUTER ITERATIONS 
       AND A TOTAL OF          3 INNER ITERATIONS.
    ------------------------------------------------

 OUTPUT CONTROL FOR STRESS PERIOD    3   TIME STEP   64
    SAVE HEAD FOR ALL LAYERS
    SAVE DRAWDOWN FOR ALL LAYERS
    SAVE BUDGET
    PRINT HEAD FOR ALL LAYERS
    PRINT BUDGET
1
              HEAD IN LAYER   1 AT END OF TIME STEP  64 IN STRESS PERIOD    3
  ---------------------------------------------------------------------------

            1           2           3           4           5           6           7           8           9          10
           11          12          13          14          15          16          17          18          19          20
 ........................................................................................................................
   1    0.000       0.000       0.000       0.000       0.000       7.351       7.347       7.371       7.384       7.398    
        7.430       7.518       7.601       7.365       7.582       7.477       7.394       7.376       0.000       0.000    
   2    0.000       0.000       0.000       0.000       7.426       7.429       7.396       7.459       7.465       7.471    
        7.494       7.562       7.627       7.363       7.570       7.448       7.384       7.374       0.000       0.000    
   3    0.000       0.000       0.000       7.524       7.535       7.529       7.524       7.549       7.563       7.563    
        7.573       7.614       7.682       7.362       7.546       7.373       7.370       7.374       0.000       0.000    
   4    0.000       0.000       7.671       7.616       7.582       7.363       7.366       7.364       7.361       7.362    
        7.363       7.374       7.640       7.360       7.539       7.428       7.387       7.386       0.000       0.000    
   5    0.000       0.000       7.517       7.401       7.360       7.370       7.599       7.606       7.591       7.596    
        7.593       7.364       7.360       7.367       7.524       7.440       7.400       7.402       7.417       0.000    
   6    0.000       7.358       7.359       7.361       7.432       7.599       7.588       7.534       7.508       7.511    
        7.542       7.543       7.554       7.537       7.490       7.422       7.401       7.406       7.419       0.000    
   7    0.000       7.586       7.582       7.578       7.579       7.544       7.485       7.447       7.428       7.422    
        7.432       7.461       7.475       7.465       7.428       7.399       7.392       7.397       0.000       0.000    
   8    0.000       7.532       7.516       7.509       7.495       7.464       7.436       7.417       7.401       7.382    
        7.364       7.390       7.405       7.407       7.394       7.381       7.374       7.380       0.000       0.000    
   9    0.000       0.000       7.454       7.453       7.447       7.437       7.426       7.413       7.395       7.361    
        7.287       7.355       7.380       7.385       7.377       7.359       7.336       7.359       7.377       7.390    
  10    0.000       0.000       7.438       7.438       7.437       7.433       7.427       7.416       7.397       7.370    
        7.340       7.360       7.375       7.379       7.367       7.331       7.247       7.333       7.371       7.387    

 HEAD WILL BE SAVED ON UNIT   51 AT END OF TIME STEP   64, STRESS PERIOD    3

 DRAWDOWN WILL BE SAVED ON UNIT   52 AT END OF TIME STEP   64, STRESS PERIOD    3
1
  VOLUMETRIC BUDGET FOR ENTIRE MODEL AT END OF TIME STEP   64, STRESS PERIOD   3
  ------------------------------------------------------------------------------

     CUMULATIVE VOLUMES      L**3       RATES FOR THIS TIME STEP      L**3/T
     ------------------                 ------------------------

           IN:                                      IN:
           ---                                      ---
             STORAGE =     1007338.9375               STORAGE =        2750.7483
       CONSTANT HEAD =           0.0000         CONSTANT HEAD =           0.0000
               WELLS =           0.0000                 WELLS =           0.0000
       RIVER LEAKAGE =     1458095.5000         RIVER LEAKAGE =           0.0000
            RECHARGE =       78833.1328              RECHARGE =         343.4863

            TOTAL IN =     2544267.7500              TOTAL IN =        3094.2346

          OUT:                                     OUT:
          ----                                     ----
             STORAGE =     1576856.1250               STORAGE =         635.0729
       CONSTANT HEAD =           0.0000         CONSTANT HEAD =           0.0000
               WELLS =       34358.1523                 WELLS =         223.5936
       RIVER LEAKAGE =      933166.1875         RIVER LEAKAGE =        2235.0325
            RECHARGE =           0.0000              RECHARGE =           0.0000

           TOTAL OUT =     2544380.5000             TOTAL OUT =        3093.6990

            IN - OUT =        -112.7500              IN - OUT =           0.5356

 PERCENT DISCREPANCY =          -0.00     PERCENT DISCREPANCY =           0.02






         TIME SUMMARY AT END OF TIME STEP   64 IN STRESS PERIOD    3
                    SECONDS     MINUTES      HOURS       DAYS        YEARS
                    -----------------------------------------------------------
   TIME STEP LENGTH  86400.      1440.0      24.000      1.0000     2.73785E-03
 STRESS PERIOD TIME 5.52960E+06  92160.      1536.0      64.000     0.17522    
         TOTAL TIME 1.42560E+07 2.37600E+05  3960.0      165.00     0.45175    
1

 SOLVING FOR HEAD 

    ------------------------------------------------
       NWT REQUIRED            3 OUTER ITERATIONS 
       AND A TOTAL OF          3 INNER ITERATIONS.
    ------------------------------------------------

 OUTPUT CONTROL FOR STRESS PERIOD    3   TIME STEP   65
    SAVE HEAD FOR ALL LAYERS
    SAVE DRAWDOWN FOR ALL LAYERS
    SAVE BUDGET
    PRINT HEAD FOR ALL LAYERS
    PRINT BUDGET
1
              HEAD IN LAYER   1 AT END OF TIME STEP  65 IN STRESS PERIOD    3
  ---------------------------------------------------------------------------

            1           2           3           4           5           6           7           8           9          10
           11          12          13          14          15          16          17          18          19          20
 ........................................................................................................................
   1    0.000       0.000       0.000       0.000       0.000       7.351       7.348       7.372       7.385       7.399    
        7.431       7.518       7.598       7.365       7.580       7.477       7.395       7.376       0.000       0.000    
   2    0.000       0.000       0.000       0.000       7.427       7.429       7.396       7.459       7.465       7.472    
        7.494       7.562       7.625       7.363       7.568       7.448       7.384       7.374       0.000       0.000    
   3    0.000       0.000       0.000       7.524       7.535       7.527       7.522       7.547       7.561       7.561    
        7.572       7.613       7.680       7.361       7.544       7.373       7.371       7.374       0.000       0.000    
   4    0.000       0.000       7.670       7.614       7.580       7.363       7.366       7.364       7.361       7.362    
        7.363       7.374       7.637       7.360       7.538       7.428       7.387       7.386       0.000       0.000    
   5    0.000       0.000       7.513       7.400       7.359       7.370       7.596       7.604       7.590       7.594    
        7.590       7.364       7.360       7.367       7.523       7.440       7.400       7.402       7.417       0.000    
   6    0.000       7.358       7.358       7.361       7.431       7.596       7.587       7.534       7.508       7.511    
        7.541       7.542       7.552       7.535       7.490       7.422       7.401       7.406       7.419       0.000    
   7    0.000       7.584       7.580       7.576       7.578       7.544       7.485       7.447       7.428       7.422    
        7.433       7.461       7.475       7.465       7.428       7.399       7.392       7.397       0.000       0.000    
   8    0.000       7.532       7.516       7.510       7.495       7.464       7.436       7.417       7.401       7.382    
        7.365       7.390       7.406       7.407       7.394       7.381       7.374       7.380       0.000       0.000    
   9    0.000       0.000       7.454       7.453       7.447       7.437       7.426       7.413       7.395       7.361    
        7.287       7.355       7.380       7.385       7.377       7.359       7.336       7.359       7.377       7.390    
  10    0.000       0.000       7.438       7.438       7.437       7.433       7.427       7.416       7.397       7.370    
        7.340       7.360       7.375       7.379       7.367       7.331       7.247       7.333       7.371       7.387    

 HEAD WILL BE SAVED ON UNIT   51 AT END OF TIME STEP   65, STRESS PERIOD    3

 DRAWDOWN WILL BE SAVED ON UNIT   52 AT END OF TIME STEP   65, STRESS PERIOD    3
1
  VOLUMETRIC BUDGET FOR ENTIRE MODEL AT END OF TIME STEP   65, STRESS PERIOD   3
  ------------------------------------------------------------------------------

     CUMULATIVE VOLUMES      L**3       RATES FOR THIS TIME STEP      L**3/T
     ------------------                 ------------------------

           IN:                                      IN:
           ---                                      ---
             STORAGE =     1010053.0000               STORAGE =        2714.0879
       CONSTANT HEAD =           0.0000         CONSTANT HEAD =           0.0000
               WELLS =           0.0000                 WELLS =           0.0000
       RIVER LEAKAGE =     1458095.5000         RIVER LEAKAGE =           0.0000
            RECHARGE =       79176.6172              RECHARGE =         343.4863

            TOTAL IN =     2547325.0000              TOTAL IN =        3057.5742

          OUT:                                     OUT:
          ----                                     ----
             STORAGE =     1577481.0000               STORAGE =         624.9253
       CONSTANT HEAD =           0.0000         CONSTANT HEAD =           0.0000
               WELLS =       34581.7461                 WELLS =         223.5936
       RIVER LEAKAGE =      935374.6875         RIVER LEAKAGE =        2208.5266
            RECHARGE =           0.0000              RECHARGE =           0.0000

           TOTAL OUT =     2547437.5000             TOTAL OUT =        3057.0454

            IN - OUT =        -112.5000              IN - OUT =           0.5288

 PERCENT DISCREPANCY =          -0.00     PERCENT DISCREPANCY =           0.02






         TIME SUMMARY AT END OF TIME STEP   65 IN STRESS PERIOD    3
                    SECONDS     MINUTES      HOURS       DAYS        YEARS
                    -----------------------------------------------------------
   TIME STEP LENGTH  86400.      1440.0      24.000      1.0000     2.73785E-03
 STRESS PERIOD TIME 5.61600E+06  93600.      1560.0      65.000     0.17796    
         TOTAL TIME 1.43424E+07 2.39040E+05  3984.0      166.00     0.45448    
1

 SOLVING FOR HEAD 

    ------------------------------------------------
       NWT REQUIRED            3 OUTER ITERATIONS 
       AND A TOTAL OF          3 INNER ITERATIONS.
    ------------------------------------------------

 OUTPUT CONTROL FOR STRESS PERIOD    3   TIME STEP   66
    SAVE HEAD FOR ALL LAYERS
    SAVE DRAWDOWN FOR ALL LAYERS
    SAVE BUDGET
    PRINT HEAD FOR ALL LAYERS
    PRINT BUDGET
1
              HEAD IN LAYER   1 AT END OF TIME STEP  66 IN STRESS PERIOD    3
  ---------------------------------------------------------------------------

            1           2           3           4           5           6           7           8           9          10
           11          12          13          14          15          16          17          18          19          20
 ........................................................................................................................
   1    0.000       0.000       0.000       0.000       0.000       7.352       7.348       7.372       7.386       7.400    
        7.431       7.518       7.596       7.365       7.577       7.477       7.395       7.376       0.000       0.000    
   2    0.000       0.000       0.000       0.000       7.428       7.430       7.396       7.459       7.465       7.472    
        7.495       7.562       7.623       7.363       7.566       7.448       7.385       7.374       0.000       0.000    
   3    0.000       0.000       0.000       7.525       7.534       7.526       7.520       7.545       7.559       7.559    
        7.570       7.611       7.677       7.361       7.543       7.373       7.371       7.374       0.000       0.000    
   4    0.000       0.000       7.669       7.613       7.577       7.363       7.366       7.364       7.361       7.362    
        7.363       7.374       7.633       7.359       7.537       7.428       7.387       7.386       0.000       0.000    
   5    0.000       0.000       7.510       7.399       7.359       7.370       7.593       7.602       7.588       7.593    
        7.588       7.364       7.360       7.367       7.522       7.440       7.400       7.402       7.417       0.000    
   6    0.000       7.358       7.358       7.361       7.429       7.594       7.586       7.534       7.508       7.511    
        7.541       7.540       7.551       7.534       7.489       7.422       7.401       7.406       7.419       0.000    
   7    0.000       7.583       7.578       7.575       7.576       7.544       7.486       7.448       7.429       7.422    
        7.433       7.461       7.475       7.465       7.428       7.400       7.392       7.397       0.000       0.000    
   8    0.000       7.533       7.516       7.510       7.496       7.465       7.436       7.417       7.401       7.382    
        7.365       7.390       7.406       7.407       7.394       7.381       7.374       7.380       0.000       0.000    
   9    0.000       0.000       7.455       7.453       7.448       7.437       7.426       7.414       7.395       7.361    
        7.287       7.355       7.380       7.385       7.377       7.359       7.336       7.359       7.377       7.390    
  10    0.000       0.000       7.438       7.438       7.437       7.433       7.427       7.416       7.397       7.370    
        7.340       7.360       7.375       7.379       7.367       7.331       7.247       7.333       7.371       7.387    

 HEAD WILL BE SAVED ON UNIT   51 AT END OF TIME STEP   66, STRESS PERIOD    3

 DRAWDOWN WILL BE SAVED ON UNIT   52 AT END OF TIME STEP   66, STRESS PERIOD    3
1
  VOLUMETRIC BUDGET FOR ENTIRE MODEL AT END OF TIME STEP   66, STRESS PERIOD   3
  ------------------------------------------------------------------------------

     CUMULATIVE VOLUMES      L**3       RATES FOR THIS TIME STEP      L**3/T
     ------------------                 ------------------------

           IN:                                      IN:
           ---                                      ---
             STORAGE =     1012731.3125               STORAGE =        2678.2942
       CONSTANT HEAD =           0.0000         CONSTANT HEAD =           0.0000
               WELLS =           0.0000                 WELLS =           0.0000
       RIVER LEAKAGE =     1458095.5000         RIVER LEAKAGE =           0.0000
            RECHARGE =       79520.1016              RECHARGE =         343.4863

            TOTAL IN =     2550346.7500              TOTAL IN =        3021.7805

          OUT:                                     OUT:
          ----                                     ----
             STORAGE =     1578096.0000               STORAGE =         615.0085
       CONSTANT HEAD =           0.0000         CONSTANT HEAD =           0.0000
               WELLS =       34805.3398                 WELLS =         223.5936
       RIVER LEAKAGE =      937557.3750         RIVER LEAKAGE =        2182.6562
            RECHARGE =           0.0000              RECHARGE =           0.0000

           TOTAL OUT =     2550458.7500             TOTAL OUT =        3021.2583

            IN - OUT =        -112.0000              IN - OUT =           0.5222

 PERCENT DISCREPANCY =          -0.00     PERCENT DISCREPANCY =           0.02






         TIME SUMMARY AT END OF TIME STEP   66 IN STRESS PERIOD    3
                    SECONDS     MINUTES      HOURS       DAYS        YEARS
                    -----------------------------------------------------------
   TIME STEP LENGTH  86400.      1440.0      24.000      1.0000     2.73785E-03
 STRESS PERIOD TIME 5.70240E+06  95040.      1584.0      66.000     0.18070    
         TOTAL TIME 1.44288E+07 2.40480E+05  4008.0      167.00     0.45722    
1

 SOLVING FOR HEAD 

    ------------------------------------------------
       NWT REQUIRED            3 OUTER ITERATIONS 
       AND A TOTAL OF          3 INNER ITERATIONS.
    ------------------------------------------------

 OUTPUT CONTROL FOR STRESS PERIOD    3   TIME STEP   67
    SAVE HEAD FOR ALL LAYERS
    SAVE DRAWDOWN FOR ALL LAYERS
    SAVE BUDGET
    PRINT HEAD FOR ALL LAYERS
    PRINT BUDGET
1
              HEAD IN LAYER   1 AT END OF TIME STEP  67 IN STRESS PERIOD    3
  ---------------------------------------------------------------------------

            1           2           3           4           5           6           7           8           9          10
           11          12          13          14          15          16          17          18          19          20
 ........................................................................................................................
   1    0.000       0.000       0.000       0.000       0.000       7.352       7.349       7.373       7.386       7.400    
        7.432       7.519       7.594       7.365       7.575       7.477       7.395       7.377       0.000       0.000    
   2    0.000       0.000       0.000       0.000       7.429       7.430       7.395       7.458       7.465       7.472    
        7.495       7.562       7.621       7.363       7.564       7.448       7.385       7.374       0.000       0.000    
   3    0.000       0.000       0.000       7.526       7.534       7.524       7.518       7.543       7.557       7.558    
        7.569       7.610       7.675       7.361       7.541       7.374       7.371       7.375       0.000       0.000    
   4    0.000       0.000       7.667       7.611       7.575       7.362       7.366       7.364       7.361       7.362    
        7.363       7.373       7.629       7.359       7.535       7.429       7.387       7.386       0.000       0.000    
   5    0.000       0.000       7.507       7.398       7.359       7.370       7.590       7.600       7.586       7.591    
        7.585       7.364       7.360       7.367       7.521       7.440       7.400       7.402       7.417       0.000    
   6    0.000       7.358       7.358       7.361       7.427       7.592       7.585       7.534       7.508       7.512    
        7.540       7.539       7.549       7.533       7.489       7.422       7.401       7.406       7.419       0.000    
   7    0.000       7.581       7.577       7.573       7.575       7.544       7.486       7.448       7.429       7.423    
        7.433       7.461       7.475       7.465       7.428       7.400       7.392       7.397       0.000       0.000    
   8    0.000       7.533       7.516       7.510       7.496       7.465       7.437       7.418       7.401       7.382    
        7.365       7.390       7.406       7.407       7.394       7.381       7.374       7.380       0.000       0.000    
   9    0.000       0.000       7.455       7.453       7.448       7.437       7.426       7.414       7.395       7.361    
        7.287       7.355       7.380       7.385       7.377       7.359       7.336       7.359       7.377       7.390    
  10    0.000       0.000       7.438       7.438       7.437       7.433       7.427       7.416       7.397       7.370    
        7.340       7.360       7.376       7.379       7.367       7.331       7.247       7.333       7.371       7.387    

 HEAD WILL BE SAVED ON UNIT   51 AT END OF TIME STEP   67, STRESS PERIOD    3

 DRAWDOWN WILL BE SAVED ON UNIT   52 AT END OF TIME STEP   67, STRESS PERIOD    3
1
  VOLUMETRIC BUDGET FOR ENTIRE MODEL AT END OF TIME STEP   67, STRESS PERIOD   3
  ------------------------------------------------------------------------------

     CUMULATIVE VOLUMES      L**3       RATES FOR THIS TIME STEP      L**3/T
     ------------------                 ------------------------

           IN:                                      IN:
           ---                                      ---
             STORAGE =     1015374.5625               STORAGE =        2643.2351
       CONSTANT HEAD =           0.0000         CONSTANT HEAD =           0.0000
               WELLS =           0.0000                 WELLS =           0.0000
       RIVER LEAKAGE =     1458095.5000         RIVER LEAKAGE =           0.0000
            RECHARGE =       79863.5859              RECHARGE =         343.4863

            TOTAL IN =     2553333.5000              TOTAL IN =        2986.7214

          OUT:                                     OUT:
          ----                                     ----
             STORAGE =     1578701.2500               STORAGE =         605.2092
       CONSTANT HEAD =           0.0000         CONSTANT HEAD =           0.0000
               WELLS =       35028.9336                 WELLS =         223.5936
       RIVER LEAKAGE =      939714.7500         RIVER LEAKAGE =        2157.4031
            RECHARGE =           0.0000              RECHARGE =           0.0000

           TOTAL OUT =     2553445.0000             TOTAL OUT =        2986.2061

            IN - OUT =        -111.5000              IN - OUT =           0.5154

 PERCENT DISCREPANCY =          -0.00     PERCENT DISCREPANCY =           0.02






         TIME SUMMARY AT END OF TIME STEP   67 IN STRESS PERIOD    3
                    SECONDS     MINUTES      HOURS       DAYS        YEARS
                    -----------------------------------------------------------
   TIME STEP LENGTH  86400.      1440.0      24.000      1.0000     2.73785E-03
 STRESS PERIOD TIME 5.78880E+06  96480.      1608.0      67.000     0.18344    
         TOTAL TIME 1.45152E+07 2.41920E+05  4032.0      168.00     0.45996    
1

 SOLVING FOR HEAD 

    ------------------------------------------------
       NWT REQUIRED            3 OUTER ITERATIONS 
       AND A TOTAL OF          3 INNER ITERATIONS.
    ------------------------------------------------

 OUTPUT CONTROL FOR STRESS PERIOD    3   TIME STEP   68
    SAVE HEAD FOR ALL LAYERS
    SAVE DRAWDOWN FOR ALL LAYERS
    SAVE BUDGET
    PRINT HEAD FOR ALL LAYERS
    PRINT BUDGET
1
              HEAD IN LAYER   1 AT END OF TIME STEP  68 IN STRESS PERIOD    3
  ---------------------------------------------------------------------------

            1           2           3           4           5           6           7           8           9          10
           11          12          13          14          15          16          17          18          19          20
 ........................................................................................................................
   1    0.000       0.000       0.000       0.000       0.000       7.353       7.349       7.373       7.387       7.401    
        7.433       7.519       7.592       7.365       7.572       7.477       7.395       7.377       0.000       0.000    
   2    0.000       0.000       0.000       0.000       7.429       7.430       7.395       7.458       7.465       7.472    
        7.495       7.562       7.619       7.363       7.562       7.448       7.385       7.374       0.000       0.000    
   3    0.000       0.000       0.000       7.526       7.533       7.522       7.516       7.541       7.556       7.556    
        7.568       7.608       7.673       7.361       7.539       7.374       7.371       7.375       0.000       0.000    
   4    0.000       0.000       7.666       7.609       7.572       7.362       7.365       7.364       7.361       7.362    
        7.363       7.373       7.625       7.359       7.534       7.429       7.388       7.386       0.000       0.000    
   5    0.000       0.000       7.503       7.397       7.359       7.369       7.587       7.598       7.585       7.589    
        7.583       7.364       7.360       7.366       7.520       7.440       7.401       7.402       7.417       0.000    
   6    0.000       7.358       7.358       7.361       7.426       7.589       7.585       7.535       7.508       7.512    
        7.540       7.538       7.548       7.531       7.489       7.423       7.402       7.406       7.419       0.000    
   7    0.000       7.580       7.575       7.572       7.573       7.543       7.487       7.449       7.430       7.423    
        7.434       7.461       7.475       7.465       7.429       7.400       7.392       7.397       0.000       0.000    
   8    0.000       7.533       7.516       7.510       7.496       7.465       7.437       7.418       7.401       7.383    
        7.365       7.390       7.406       7.407       7.394       7.381       7.374       7.380       0.000       0.000    
   9    0.000       0.000       7.455       7.454       7.448       7.437       7.426       7.414       7.395       7.361    
        7.287       7.355       7.380       7.386       7.377       7.359       7.336       7.359       7.377       7.390    
  10    0.000       0.000       7.438       7.438       7.437       7.433       7.427       7.416       7.397       7.370    
        7.340       7.360       7.376       7.379       7.367       7.331       7.247       7.333       7.371       7.387    

 HEAD WILL BE SAVED ON UNIT   51 AT END OF TIME STEP   68, STRESS PERIOD    3

 DRAWDOWN WILL BE SAVED ON UNIT   52 AT END OF TIME STEP   68, STRESS PERIOD    3
1
  VOLUMETRIC BUDGET FOR ENTIRE MODEL AT END OF TIME STEP   68, STRESS PERIOD   3
  ------------------------------------------------------------------------------

     CUMULATIVE VOLUMES      L**3       RATES FOR THIS TIME STEP      L**3/T
     ------------------                 ------------------------

           IN:                                      IN:
           ---                                      ---
             STORAGE =     1017983.4375               STORAGE =        2608.8652
       CONSTANT HEAD =           0.0000         CONSTANT HEAD =           0.0000
               WELLS =           0.0000                 WELLS =           0.0000
       RIVER LEAKAGE =     1458095.5000         RIVER LEAKAGE =           0.0000
            RECHARGE =       80207.0703              RECHARGE =         343.4863

            TOTAL IN =     2556286.0000              TOTAL IN =        2952.3516

          OUT:                                     OUT:
          ----                                     ----
             STORAGE =     1579296.7500               STORAGE =         595.5254
       CONSTANT HEAD =           0.0000         CONSTANT HEAD =           0.0000
               WELLS =       35252.5273                 WELLS =         223.5936
       RIVER LEAKAGE =      941847.5000         RIVER LEAKAGE =        2132.7234
            RECHARGE =           0.0000              RECHARGE =           0.0000

           TOTAL OUT =     2556396.7500             TOTAL OUT =        2951.8423

            IN - OUT =        -110.7500              IN - OUT =           0.5093

 PERCENT DISCREPANCY =          -0.00     PERCENT DISCREPANCY =           0.02






         TIME SUMMARY AT END OF TIME STEP   68 IN STRESS PERIOD    3
                    SECONDS     MINUTES      HOURS       DAYS        YEARS
                    -----------------------------------------------------------
   TIME STEP LENGTH  86400.      1440.0      24.000      1.0000     2.73785E-03
 STRESS PERIOD TIME 5.87520E+06  97920.      1632.0      68.000     0.18617    
         TOTAL TIME 1.46016E+07 2.43360E+05  4056.0      169.00     0.46270    
1

 SOLVING FOR HEAD 

    ------------------------------------------------
       NWT REQUIRED            3 OUTER ITERATIONS 
       AND A TOTAL OF          3 INNER ITERATIONS.
    ------------------------------------------------

 OUTPUT CONTROL FOR STRESS PERIOD    3   TIME STEP   69
    SAVE HEAD FOR ALL LAYERS
    SAVE DRAWDOWN FOR ALL LAYERS
    SAVE BUDGET
    PRINT HEAD FOR ALL LAYERS
    PRINT BUDGET
1
              HEAD IN LAYER   1 AT END OF TIME STEP  69 IN STRESS PERIOD    3
  ---------------------------------------------------------------------------

            1           2           3           4           5           6           7           8           9          10
           11          12          13          14          15          16          17          18          19          20
 ........................................................................................................................
   1    0.000       0.000       0.000       0.000       0.000       7.353       7.349       7.374       7.387       7.401    
        7.433       7.519       7.589       7.365       7.570       7.477       7.396       7.377       0.000       0.000    
   2    0.000       0.000       0.000       0.000       7.430       7.430       7.395       7.458       7.465       7.472    
        7.496       7.562       7.617       7.363       7.560       7.448       7.385       7.374       0.000       0.000    
   3    0.000       0.000       0.000       7.527       7.533       7.521       7.513       7.539       7.554       7.555    
        7.566       7.607       7.670       7.361       7.538       7.374       7.372       7.375       0.000       0.000    
   4    0.000       0.000       7.665       7.608       7.570       7.362       7.365       7.364       7.361       7.362    
        7.363       7.373       7.621       7.359       7.533       7.429       7.388       7.387       0.000       0.000    
   5    0.000       0.000       7.500       7.396       7.359       7.369       7.584       7.596       7.583       7.587    
        7.580       7.364       7.360       7.366       7.518       7.440       7.401       7.403       7.417       0.000    
   6    0.000       7.358       7.358       7.360       7.424       7.587       7.584       7.535       7.509       7.512    
        7.539       7.536       7.546       7.530       7.489       7.423       7.402       7.406       7.419       0.000    
   7    0.000       7.578       7.574       7.570       7.572       7.543       7.487       7.449       7.430       7.424    
        7.434       7.461       7.475       7.465       7.429       7.400       7.392       7.397       0.000       0.000    
   8    0.000       7.533       7.516       7.510       7.496       7.466       7.437       7.418       7.402       7.383    
        7.365       7.391       7.407       7.408       7.395       7.381       7.374       7.380       0.000       0.000    
   9    0.000       0.000       7.455       7.454       7.448       7.438       7.426       7.414       7.395       7.361    
        7.287       7.356       7.380       7.386       7.377       7.359       7.336       7.359       7.377       7.390    
  10    0.000       0.000       7.438       7.439       7.437       7.433       7.427       7.416       7.397       7.370    
        7.340       7.360       7.376       7.379       7.367       7.331       7.246       7.333       7.371       7.387    

 HEAD WILL BE SAVED ON UNIT   51 AT END OF TIME STEP   69, STRESS PERIOD    3

 DRAWDOWN WILL BE SAVED ON UNIT   52 AT END OF TIME STEP   69, STRESS PERIOD    3
1
  VOLUMETRIC BUDGET FOR ENTIRE MODEL AT END OF TIME STEP   69, STRESS PERIOD   3
  ------------------------------------------------------------------------------

     CUMULATIVE VOLUMES      L**3       RATES FOR THIS TIME STEP      L**3/T
     ------------------                 ------------------------

           IN:                                      IN:
           ---                                      ---
             STORAGE =     1020558.6250               STORAGE =        2575.1765
       CONSTANT HEAD =           0.0000         CONSTANT HEAD =           0.0000
               WELLS =           0.0000                 WELLS =           0.0000
       RIVER LEAKAGE =     1458095.5000         RIVER LEAKAGE =           0.0000
            RECHARGE =       80550.5547              RECHARGE =         343.4863

            TOTAL IN =     2559204.5000              TOTAL IN =        2918.6628

          OUT:                                     OUT:
          ----                                     ----
             STORAGE =     1579882.7500               STORAGE =         585.9573
       CONSTANT HEAD =           0.0000         CONSTANT HEAD =           0.0000
               WELLS =       35476.1211                 WELLS =         223.5936
       RIVER LEAKAGE =      943956.1250         RIVER LEAKAGE =        2108.6089
            RECHARGE =           0.0000              RECHARGE =           0.0000

           TOTAL OUT =     2559315.0000             TOTAL OUT =        2918.1597

            IN - OUT =        -110.5000              IN - OUT =           0.5032

 PERCENT DISCREPANCY =          -0.00     PERCENT DISCREPANCY =           0.02






         TIME SUMMARY AT END OF TIME STEP   69 IN STRESS PERIOD    3
                    SECONDS     MINUTES      HOURS       DAYS        YEARS
                    -----------------------------------------------------------
   TIME STEP LENGTH  86400.      1440.0      24.000      1.0000     2.73785E-03
 STRESS PERIOD TIME 5.96160E+06  99360.      1656.0      69.000     0.18891    
         TOTAL TIME 1.46880E+07 2.44800E+05  4080.0      170.00     0.46543    
1

 SOLVING FOR HEAD 

    ------------------------------------------------
       NWT REQUIRED            3 OUTER ITERATIONS 
       AND A TOTAL OF          3 INNER ITERATIONS.
    ------------------------------------------------

 OUTPUT CONTROL FOR STRESS PERIOD    3   TIME STEP   70
    SAVE HEAD FOR ALL LAYERS
    SAVE DRAWDOWN FOR ALL LAYERS
    SAVE BUDGET
    PRINT HEAD FOR ALL LAYERS
    PRINT BUDGET
1
              HEAD IN LAYER   1 AT END OF TIME STEP  70 IN STRESS PERIOD    3
  ---------------------------------------------------------------------------

            1           2           3           4           5           6           7           8           9          10
           11          12          13          14          15          16          17          18          19          20
 ........................................................................................................................
   1    0.000       0.000       0.000       0.000       0.000       7.354       7.350       7.374       7.388       7.402    
        7.434       7.519       7.587       7.365       7.568       7.477       7.396       7.377       0.000       0.000    
   2    0.000       0.000       0.000       0.000       7.431       7.430       7.394       7.458       7.465       7.473    
        7.496       7.562       7.615       7.363       7.558       7.448       7.386       7.375       0.000       0.000    
   3    0.000       0.000       0.000       7.527       7.533       7.519       7.511       7.537       7.552       7.553    
        7.565       7.606       7.668       7.361       7.536       7.374       7.372       7.375       0.000       0.000    
   4    0.000       0.000       7.664       7.606       7.568       7.362       7.365       7.364       7.361       7.361    
        7.363       7.373       7.618       7.359       7.531       7.429       7.388       7.387       0.000       0.000    
   5    0.000       0.000       7.497       7.395       7.359       7.369       7.581       7.594       7.582       7.586    
        7.578       7.363       7.360       7.366       7.517       7.441       7.401       7.403       7.417       0.000    
   6    0.000       7.358       7.358       7.360       7.423       7.585       7.583       7.535       7.509       7.512    
        7.539       7.535       7.544       7.528       7.489       7.423       7.402       7.406       7.419       0.000    
   7    0.000       7.577       7.572       7.568       7.571       7.543       7.488       7.450       7.430       7.424    
        7.434       7.461       7.475       7.465       7.429       7.400       7.392       7.397       0.000       0.000    
   8    0.000       7.534       7.516       7.510       7.496       7.466       7.438       7.418       7.402       7.383    
        7.366       7.391       7.407       7.408       7.395       7.381       7.374       7.380       0.000       0.000    
   9    0.000       0.000       7.456       7.454       7.449       7.438       7.426       7.414       7.395       7.361    
        7.287       7.356       7.380       7.386       7.377       7.359       7.336       7.359       7.377       7.390    
  10    0.000       0.000       7.439       7.439       7.437       7.434       7.427       7.416       7.397       7.370    
        7.340       7.360       7.376       7.379       7.367       7.331       7.246       7.333       7.371       7.387    

 HEAD WILL BE SAVED ON UNIT   51 AT END OF TIME STEP   70, STRESS PERIOD    3

 DRAWDOWN WILL BE SAVED ON UNIT   52 AT END OF TIME STEP   70, STRESS PERIOD    3
1
  VOLUMETRIC BUDGET FOR ENTIRE MODEL AT END OF TIME STEP   70, STRESS PERIOD   3
  ------------------------------------------------------------------------------

     CUMULATIVE VOLUMES      L**3       RATES FOR THIS TIME STEP      L**3/T
     ------------------                 ------------------------

           IN:                                      IN:
           ---                                      ---
             STORAGE =     1023100.9375               STORAGE =        2542.2869
       CONSTANT HEAD =           0.0000         CONSTANT HEAD =           0.0000
               WELLS =           0.0000                 WELLS =           0.0000
       RIVER LEAKAGE =     1458095.5000         RIVER LEAKAGE =           0.0000
            RECHARGE =       80894.0391              RECHARGE =         343.4863

            TOTAL IN =     2562090.5000              TOTAL IN =        2885.7732

          OUT:                                     OUT:
          ----                                     ----
             STORAGE =     1580459.3750               STORAGE =         576.6429
       CONSTANT HEAD =           0.0000         CONSTANT HEAD =           0.0000
               WELLS =       35699.7148                 WELLS =         223.5936
       RIVER LEAKAGE =      946041.1875         RIVER LEAKAGE =        2085.0396
            RECHARGE =           0.0000              RECHARGE =           0.0000

           TOTAL OUT =     2562200.2500             TOTAL OUT =        2885.2759

            IN - OUT =        -109.7500              IN - OUT =           0.4973

 PERCENT DISCREPANCY =          -0.00     PERCENT DISCREPANCY =           0.02






         TIME SUMMARY AT END OF TIME STEP   70 IN STRESS PERIOD    3
                    SECONDS     MINUTES      HOURS       DAYS        YEARS
                    -----------------------------------------------------------
   TIME STEP LENGTH  86400.      1440.0      24.000      1.0000     2.73785E-03
 STRESS PERIOD TIME 6.04800E+06 1.00800E+05  1680.0      70.000     0.19165    
         TOTAL TIME 1.47744E+07 2.46240E+05  4104.0      171.00     0.46817    
1

 SOLVING FOR HEAD 

    ------------------------------------------------
       NWT REQUIRED            3 OUTER ITERATIONS 
       AND A TOTAL OF          3 INNER ITERATIONS.
    ------------------------------------------------

 OUTPUT CONTROL FOR STRESS PERIOD    3   TIME STEP   71
    SAVE HEAD FOR ALL LAYERS
    SAVE DRAWDOWN FOR ALL LAYERS
    SAVE BUDGET
    PRINT HEAD FOR ALL LAYERS
    PRINT BUDGET
1
              HEAD IN LAYER   1 AT END OF TIME STEP  71 IN STRESS PERIOD    3
  ---------------------------------------------------------------------------

            1           2           3           4           5           6           7           8           9          10
           11          12          13          14          15          16          17          18          19          20
 ........................................................................................................................
   1    0.000       0.000       0.000       0.000       0.000       7.354       7.350       7.375       7.388       7.402    
        7.435       7.520       7.585       7.364       7.565       7.477       7.396       7.377       0.000       0.000    
   2    0.000       0.000       0.000       0.000       7.431       7.430       7.394       7.458       7.465       7.473    
        7.496       7.562       7.613       7.363       7.556       7.448       7.386       7.375       0.000       0.000    
   3    0.000       0.000       0.000       7.528       7.532       7.517       7.509       7.535       7.551       7.552    
        7.563       7.604       7.666       7.361       7.535       7.374       7.372       7.375       0.000       0.000    
   4    0.000       0.000       7.663       7.605       7.565       7.362       7.365       7.363       7.361       7.361    
        7.363       7.373       7.614       7.359       7.530       7.429       7.388       7.387       0.000       0.000    
   5    0.000       0.000       7.495       7.395       7.359       7.369       7.579       7.592       7.580       7.584    
        7.575       7.363       7.360       7.366       7.516       7.441       7.401       7.403       7.417       0.000    
   6    0.000       7.358       7.358       7.360       7.422       7.582       7.582       7.535       7.509       7.512    
        7.539       7.534       7.543       7.527       7.488       7.423       7.402       7.406       7.419       0.000    
   7    0.000       7.575       7.571       7.567       7.569       7.543       7.488       7.450       7.431       7.424    
        7.435       7.461       7.475       7.465       7.429       7.400       7.392       7.397       0.000       0.000    
   8    0.000       7.534       7.516       7.510       7.496       7.467       7.438       7.418       7.402       7.383    
        7.366       7.391       7.407       7.408       7.395       7.381       7.374       7.380       0.000       0.000    
   9    0.000       0.000       7.456       7.454       7.449       7.438       7.427       7.414       7.395       7.361    
        7.287       7.356       7.380       7.386       7.377       7.359       7.336       7.359       7.377       7.390    
  10    0.000       0.000       7.439       7.439       7.438       7.434       7.427       7.416       7.397       7.370    
        7.340       7.360       7.376       7.379       7.367       7.331       7.246       7.333       7.371       7.387    

 HEAD WILL BE SAVED ON UNIT   51 AT END OF TIME STEP   71, STRESS PERIOD    3

 DRAWDOWN WILL BE SAVED ON UNIT   52 AT END OF TIME STEP   71, STRESS PERIOD    3
1
  VOLUMETRIC BUDGET FOR ENTIRE MODEL AT END OF TIME STEP   71, STRESS PERIOD   3
  ------------------------------------------------------------------------------

     CUMULATIVE VOLUMES      L**3       RATES FOR THIS TIME STEP      L**3/T
     ------------------                 ------------------------

           IN:                                      IN:
           ---                                      ---
             STORAGE =     1025611.3750               STORAGE =        2510.4172
       CONSTANT HEAD =           0.0000         CONSTANT HEAD =           0.0000
               WELLS =           0.0000                 WELLS =           0.0000
       RIVER LEAKAGE =     1458095.5000         RIVER LEAKAGE =           0.0000
            RECHARGE =       81237.5234              RECHARGE =         343.4863

            TOTAL IN =     2564944.5000              TOTAL IN =        2853.9036

          OUT:                                     OUT:
          ----                                     ----
             STORAGE =     1581027.2500               STORAGE =         567.8397
       CONSTANT HEAD =           0.0000         CONSTANT HEAD =           0.0000
               WELLS =       35923.3086                 WELLS =         223.5936
       RIVER LEAKAGE =      948103.1875         RIVER LEAKAGE =        2061.9790
            RECHARGE =           0.0000              RECHARGE =           0.0000

           TOTAL OUT =     2565053.7500             TOTAL OUT =        2853.4124

            IN - OUT =        -109.2500              IN - OUT =           0.4912

 PERCENT DISCREPANCY =          -0.00     PERCENT DISCREPANCY =           0.02






         TIME SUMMARY AT END OF TIME STEP   71 IN STRESS PERIOD    3
                    SECONDS     MINUTES      HOURS       DAYS        YEARS
                    -----------------------------------------------------------
   TIME STEP LENGTH  86400.      1440.0      24.000      1.0000     2.73785E-03
 STRESS PERIOD TIME 6.13440E+06 1.02240E+05  1704.0      71.000     0.19439    
         TOTAL TIME 1.48608E+07 2.47680E+05  4128.0      172.00     0.47091    
1

 SOLVING FOR HEAD 

    ------------------------------------------------
       NWT REQUIRED            3 OUTER ITERATIONS 
       AND A TOTAL OF          3 INNER ITERATIONS.
    ------------------------------------------------

 OUTPUT CONTROL FOR STRESS PERIOD    3   TIME STEP   72
    SAVE HEAD FOR ALL LAYERS
    SAVE DRAWDOWN FOR ALL LAYERS
    SAVE BUDGET
    PRINT HEAD FOR ALL LAYERS
    PRINT BUDGET
1
              HEAD IN LAYER   1 AT END OF TIME STEP  72 IN STRESS PERIOD    3
  ---------------------------------------------------------------------------

            1           2           3           4           5           6           7           8           9          10
           11          12          13          14          15          16          17          18          19          20
 ........................................................................................................................
   1    0.000       0.000       0.000       0.000       0.000       7.355       7.351       7.375       7.389       7.403    
        7.435       7.520       7.583       7.364       7.563       7.477       7.397       7.377       0.000       0.000    
   2    0.000       0.000       0.000       0.000       7.432       7.430       7.394       7.458       7.466       7.473    
        7.496       7.562       7.611       7.363       7.554       7.448       7.386       7.375       0.000       0.000    
   3    0.000       0.000       0.000       7.528       7.532       7.516       7.507       7.533       7.549       7.550    
        7.562       7.603       7.663       7.361       7.533       7.374       7.372       7.375       0.000       0.000    
   4    0.000       0.000       7.661       7.603       7.563       7.362       7.365       7.363       7.361       7.361    
        7.362       7.372       7.611       7.359       7.529       7.429       7.389       7.387       0.000       0.000    
   5    0.000       0.000       7.492       7.394       7.359       7.369       7.576       7.590       7.578       7.582    
        7.573       7.363       7.360       7.366       7.515       7.441       7.401       7.403       7.417       0.000    
   6    0.000       7.358       7.358       7.360       7.420       7.580       7.582       7.535       7.509       7.512    
        7.538       7.533       7.541       7.526       7.488       7.424       7.402       7.406       7.419       0.000    
   7    0.000       7.574       7.569       7.566       7.568       7.542       7.488       7.451       7.431       7.425    
        7.435       7.461       7.475       7.465       7.430       7.401       7.393       7.397       0.000       0.000    
   8    0.000       7.534       7.517       7.510       7.496       7.467       7.438       7.419       7.402       7.383    
        7.366       7.391       7.407       7.408       7.395       7.381       7.374       7.380       0.000       0.000    
   9    0.000       0.000       7.456       7.455       7.449       7.438       7.427       7.414       7.395       7.361    
        7.287       7.356       7.380       7.386       7.378       7.359       7.336       7.359       7.377       7.390    
  10    0.000       0.000       7.439       7.439       7.438       7.434       7.427       7.416       7.397       7.370    
        7.340       7.360       7.376       7.379       7.367       7.331       7.246       7.333       7.371       7.387    

 HEAD WILL BE SAVED ON UNIT   51 AT END OF TIME STEP   72, STRESS PERIOD    3

 DRAWDOWN WILL BE SAVED ON UNIT   52 AT END OF TIME STEP   72, STRESS PERIOD    3
1
  VOLUMETRIC BUDGET FOR ENTIRE MODEL AT END OF TIME STEP   72, STRESS PERIOD   3
  ------------------------------------------------------------------------------

     CUMULATIVE VOLUMES      L**3       RATES FOR THIS TIME STEP      L**3/T
     ------------------                 ------------------------

           IN:                                      IN:
           ---                                      ---
             STORAGE =     1028090.8125               STORAGE =        2479.4146
       CONSTANT HEAD =           0.0000         CONSTANT HEAD =           0.0000
               WELLS =           0.0000                 WELLS =           0.0000
       RIVER LEAKAGE =     1458095.5000         RIVER LEAKAGE =           0.0000
            RECHARGE =       81581.0078              RECHARGE =         343.4863

            TOTAL IN =     2567767.2500              TOTAL IN =        2822.9009

          OUT:                                     OUT:
          ----                                     ----
             STORAGE =     1581586.6250               STORAGE =         559.3846
       CONSTANT HEAD =           0.0000         CONSTANT HEAD =           0.0000
               WELLS =       36146.9023                 WELLS =         223.5936
       RIVER LEAKAGE =      950142.6250         RIVER LEAKAGE =        2039.4373
            RECHARGE =           0.0000              RECHARGE =           0.0000

           TOTAL OUT =     2567876.0000             TOTAL OUT =        2822.4155

            IN - OUT =        -108.7500              IN - OUT =           0.4854

 PERCENT DISCREPANCY =          -0.00     PERCENT DISCREPANCY =           0.02






         TIME SUMMARY AT END OF TIME STEP   72 IN STRESS PERIOD    3
                    SECONDS     MINUTES      HOURS       DAYS        YEARS
                    -----------------------------------------------------------
   TIME STEP LENGTH  86400.      1440.0      24.000      1.0000     2.73785E-03
 STRESS PERIOD TIME 6.22080E+06 1.03680E+05  1728.0      72.000     0.19713    
         TOTAL TIME 1.49472E+07 2.49120E+05  4152.0      173.00     0.47365    
1

 SOLVING FOR HEAD 

    ------------------------------------------------
       NWT REQUIRED            3 OUTER ITERATIONS 
       AND A TOTAL OF          3 INNER ITERATIONS.
    ------------------------------------------------

 OUTPUT CONTROL FOR STRESS PERIOD    3   TIME STEP   73
    SAVE HEAD FOR ALL LAYERS
    SAVE DRAWDOWN FOR ALL LAYERS
    SAVE BUDGET
    PRINT HEAD FOR ALL LAYERS
    PRINT BUDGET
1
              HEAD IN LAYER   1 AT END OF TIME STEP  73 IN STRESS PERIOD    3
  ---------------------------------------------------------------------------

            1           2           3           4           5           6           7           8           9          10
           11          12          13          14          15          16          17          18          19          20
 ........................................................................................................................
   1    0.000       0.000       0.000       0.000       0.000       7.355       7.351       7.376       7.389       7.403    
        7.436       7.520       7.581       7.364       7.561       7.476       7.397       7.377       0.000       0.000    
   2    0.000       0.000       0.000       0.000       7.432       7.430       7.393       7.457       7.466       7.473    
        7.497       7.562       7.610       7.363       7.552       7.448       7.387       7.375       0.000       0.000    
   3    0.000       0.000       0.000       7.529       7.531       7.514       7.505       7.531       7.548       7.549    
        7.561       7.601       7.661       7.361       7.532       7.374       7.373       7.375       0.000       0.000    
   4    0.000       0.000       7.660       7.602       7.561       7.362       7.365       7.363       7.361       7.361    
        7.362       7.372       7.607       7.359       7.527       7.429       7.389       7.387       0.000       0.000    
   5    0.000       0.000       7.489       7.393       7.359       7.369       7.573       7.588       7.577       7.580    
        7.571       7.363       7.359       7.366       7.514       7.441       7.401       7.403       7.417       0.000    
   6    0.000       7.358       7.358       7.360       7.419       7.578       7.581       7.535       7.509       7.512    
        7.538       7.531       7.540       7.524       7.488       7.424       7.402       7.406       7.419       0.000    
   7    0.000       7.572       7.568       7.564       7.566       7.542       7.489       7.451       7.432       7.425    
        7.435       7.461       7.475       7.465       7.430       7.401       7.393       7.397       0.000       0.000    
   8    0.000       7.534       7.517       7.510       7.497       7.467       7.439       7.419       7.402       7.383    
        7.366       7.392       7.408       7.408       7.395       7.381       7.374       7.380       0.000       0.000    
   9    0.000       0.000       7.457       7.455       7.449       7.438       7.427       7.414       7.395       7.361    
        7.287       7.356       7.380       7.386       7.378       7.359       7.336       7.359       7.377       7.390    
  10    0.000       0.000       7.439       7.439       7.438       7.434       7.427       7.416       7.397       7.370    
        7.340       7.360       7.376       7.379       7.367       7.331       7.246       7.333       7.371       7.387    

 HEAD WILL BE SAVED ON UNIT   51 AT END OF TIME STEP   73, STRESS PERIOD    3

 DRAWDOWN WILL BE SAVED ON UNIT   52 AT END OF TIME STEP   73, STRESS PERIOD    3
1
  VOLUMETRIC BUDGET FOR ENTIRE MODEL AT END OF TIME STEP   73, STRESS PERIOD   3
  ------------------------------------------------------------------------------

     CUMULATIVE VOLUMES      L**3       RATES FOR THIS TIME STEP      L**3/T
     ------------------                 ------------------------

           IN:                                      IN:
           ---                                      ---
             STORAGE =     1030540.1875               STORAGE =        2449.3984
       CONSTANT HEAD =           0.0000         CONSTANT HEAD =           0.0000
               WELLS =           0.0000                 WELLS =           0.0000
       RIVER LEAKAGE =     1458095.5000         RIVER LEAKAGE =           0.0000
            RECHARGE =       81924.4922              RECHARGE =         343.4863

            TOTAL IN =     2570560.2500              TOTAL IN =        2792.8848

          OUT:                                     OUT:
          ----                                     ----
             STORAGE =     1582138.0000               STORAGE =         551.4266
       CONSTANT HEAD =           0.0000         CONSTANT HEAD =           0.0000
               WELLS =       36370.4961                 WELLS =         223.5936
       RIVER LEAKAGE =      952160.0000         RIVER LEAKAGE =        2017.3846
            RECHARGE =           0.0000              RECHARGE =           0.0000

           TOTAL OUT =     2570668.5000             TOTAL OUT =        2792.4048

            IN - OUT =        -108.2500              IN - OUT =           0.4800

 PERCENT DISCREPANCY =          -0.00     PERCENT DISCREPANCY =           0.02






         TIME SUMMARY AT END OF TIME STEP   73 IN STRESS PERIOD    3
                    SECONDS     MINUTES      HOURS       DAYS        YEARS
                    -----------------------------------------------------------
   TIME STEP LENGTH  86400.      1440.0      24.000      1.0000     2.73785E-03
 STRESS PERIOD TIME 6.30720E+06 1.05120E+05  1752.0      73.000     0.19986    
         TOTAL TIME 1.50336E+07 2.50560E+05  4176.0      174.00     0.47639    
1

 SOLVING FOR HEAD 

    ------------------------------------------------
       NWT REQUIRED            3 OUTER ITERATIONS 
       AND A TOTAL OF          3 INNER ITERATIONS.
    ------------------------------------------------

 OUTPUT CONTROL FOR STRESS PERIOD    3   TIME STEP   74
    SAVE HEAD FOR ALL LAYERS
    SAVE DRAWDOWN FOR ALL LAYERS
    SAVE BUDGET
    PRINT HEAD FOR ALL LAYERS
    PRINT BUDGET
1
              HEAD IN LAYER   1 AT END OF TIME STEP  74 IN STRESS PERIOD    3
  ---------------------------------------------------------------------------

            1           2           3           4           5           6           7           8           9          10
           11          12          13          14          15          16          17          18          19          20
 ........................................................................................................................
   1    0.000       0.000       0.000       0.000       0.000       7.356       7.352       7.376       7.390       7.404    
        7.437       7.520       7.579       7.364       7.559       7.476       7.397       7.377       0.000       0.000    
   2    0.000       0.000       0.000       0.000       7.433       7.430       7.393       7.457       7.466       7.473    
        7.497       7.562       7.608       7.363       7.550       7.448       7.387       7.375       0.000       0.000    
   3    0.000       0.000       0.000       7.529       7.531       7.513       7.503       7.529       7.546       7.548    
        7.559       7.600       7.659       7.361       7.531       7.374       7.373       7.375       0.000       0.000    
   4    0.000       0.000       7.659       7.600       7.559       7.362       7.365       7.363       7.361       7.361    
        7.362       7.372       7.604       7.359       7.526       7.429       7.389       7.387       0.000       0.000    
   5    0.000       0.000       7.487       7.392       7.359       7.368       7.571       7.586       7.575       7.579    
        7.569       7.363       7.359       7.366       7.513       7.441       7.402       7.403       7.417       0.000    
   6    0.000       7.358       7.358       7.360       7.418       7.576       7.580       7.535       7.509       7.512    
        7.537       7.530       7.538       7.523       7.488       7.424       7.402       7.406       7.419       0.000    
   7    0.000       7.571       7.566       7.563       7.565       7.542       7.489       7.451       7.432       7.426    
        7.436       7.461       7.474       7.465       7.430       7.401       7.393       7.397       0.000       0.000    
   8    0.000       7.534       7.517       7.510       7.497       7.468       7.439       7.419       7.402       7.384    
        7.367       7.392       7.408       7.409       7.395       7.381       7.374       7.380       0.000       0.000    
   9    0.000       0.000       7.457       7.455       7.450       7.439       7.427       7.414       7.395       7.362    
        7.287       7.356       7.381       7.386       7.378       7.359       7.336       7.359       7.377       7.390    
  10    0.000       0.000       7.439       7.439       7.438       7.434       7.427       7.416       7.397       7.370    
        7.340       7.360       7.376       7.379       7.367       7.331       7.246       7.333       7.371       7.387    

 HEAD WILL BE SAVED ON UNIT   51 AT END OF TIME STEP   74, STRESS PERIOD    3

 DRAWDOWN WILL BE SAVED ON UNIT   52 AT END OF TIME STEP   74, STRESS PERIOD    3
1
  VOLUMETRIC BUDGET FOR ENTIRE MODEL AT END OF TIME STEP   74, STRESS PERIOD   3
  ------------------------------------------------------------------------------

     CUMULATIVE VOLUMES      L**3       RATES FOR THIS TIME STEP      L**3/T
     ------------------                 ------------------------

           IN:                                      IN:
           ---                                      ---
             STORAGE =     1032960.3125               STORAGE =        2420.1536
       CONSTANT HEAD =           0.0000         CONSTANT HEAD =           0.0000
               WELLS =           0.0000                 WELLS =           0.0000
       RIVER LEAKAGE =     1458095.5000         RIVER LEAKAGE =           0.0000
            RECHARGE =       82267.9766              RECHARGE =         343.4863

            TOTAL IN =     2573323.7500              TOTAL IN =        2763.6399

          OUT:                                     OUT:
          ----                                     ----
             STORAGE =     1582681.7500               STORAGE =         543.7830
       CONSTANT HEAD =           0.0000         CONSTANT HEAD =           0.0000
               WELLS =       36594.0898                 WELLS =         223.5936
       RIVER LEAKAGE =      954155.8125         RIVER LEAKAGE =        1995.7891
            RECHARGE =           0.0000              RECHARGE =           0.0000

           TOTAL OUT =     2573431.7500             TOTAL OUT =        2763.1655

            IN - OUT =        -108.0000              IN - OUT =           0.4744

 PERCENT DISCREPANCY =          -0.00     PERCENT DISCREPANCY =           0.02






         TIME SUMMARY AT END OF TIME STEP   74 IN STRESS PERIOD    3
                    SECONDS     MINUTES      HOURS       DAYS        YEARS
                    -----------------------------------------------------------
   TIME STEP LENGTH  86400.      1440.0      24.000      1.0000     2.73785E-03
 STRESS PERIOD TIME 6.39360E+06 1.06560E+05  1776.0      74.000     0.20260    
         TOTAL TIME 1.51200E+07 2.52000E+05  4200.0      175.00     0.47912    
1

 SOLVING FOR HEAD 

    ------------------------------------------------
       NWT REQUIRED            3 OUTER ITERATIONS 
       AND A TOTAL OF          3 INNER ITERATIONS.
    ------------------------------------------------

 OUTPUT CONTROL FOR STRESS PERIOD    3   TIME STEP   75
    SAVE HEAD FOR ALL LAYERS
    SAVE DRAWDOWN FOR ALL LAYERS
    SAVE BUDGET
    PRINT HEAD FOR ALL LAYERS
    PRINT BUDGET
1
              HEAD IN LAYER   1 AT END OF TIME STEP  75 IN STRESS PERIOD    3
  ---------------------------------------------------------------------------

            1           2           3           4           5           6           7           8           9          10
           11          12          13          14          15          16          17          18          19          20
 ........................................................................................................................
   1    0.000       0.000       0.000       0.000       0.000       7.356       7.352       7.377       7.390       7.405    
        7.437       7.520       7.577       7.364       7.557       7.476       7.398       7.378       0.000       0.000    
   2    0.000       0.000       0.000       0.000       7.434       7.430       7.392       7.457       7.466       7.473    
        7.497       7.562       7.606       7.362       7.548       7.448       7.387       7.375       0.000       0.000    
   3    0.000       0.000       0.000       7.530       7.530       7.511       7.501       7.527       7.544       7.546    
        7.558       7.598       7.656       7.361       7.529       7.374       7.373       7.375       0.000       0.000    
   4    0.000       0.000       7.658       7.599       7.556       7.362       7.364       7.363       7.361       7.361    
        7.362       7.372       7.601       7.359       7.525       7.429       7.389       7.387       0.000       0.000    
   5    0.000       0.000       7.484       7.392       7.359       7.368       7.568       7.584       7.574       7.577    
        7.566       7.363       7.359       7.366       7.512       7.441       7.402       7.403       7.417       0.000    
   6    0.000       7.358       7.358       7.360       7.417       7.574       7.579       7.534       7.509       7.512    
        7.537       7.529       7.537       7.522       7.487       7.424       7.402       7.406       7.419       0.000    
   7    0.000       7.569       7.565       7.561       7.564       7.541       7.490       7.452       7.432       7.426    
        7.436       7.461       7.474       7.465       7.430       7.401       7.393       7.397       0.000       0.000    
   8    0.000       7.534       7.517       7.510       7.497       7.468       7.439       7.419       7.403       7.384    
        7.367       7.392       7.408       7.409       7.395       7.382       7.374       7.380       0.000       0.000    
   9    0.000       0.000       7.457       7.456       7.450       7.439       7.427       7.414       7.395       7.362    
        7.287       7.356       7.381       7.386       7.378       7.359       7.336       7.359       7.377       7.390    
  10    0.000       0.000       7.439       7.439       7.438       7.434       7.427       7.416       7.397       7.370    
        7.340       7.360       7.376       7.379       7.367       7.331       7.246       7.333       7.371       7.387    

 HEAD WILL BE SAVED ON UNIT   51 AT END OF TIME STEP   75, STRESS PERIOD    3

 DRAWDOWN WILL BE SAVED ON UNIT   52 AT END OF TIME STEP   75, STRESS PERIOD    3
1
  VOLUMETRIC BUDGET FOR ENTIRE MODEL AT END OF TIME STEP   75, STRESS PERIOD   3
  ------------------------------------------------------------------------------

     CUMULATIVE VOLUMES      L**3       RATES FOR THIS TIME STEP      L**3/T
     ------------------                 ------------------------

           IN:                                      IN:
           ---                                      ---
             STORAGE =     1035351.9375               STORAGE =        2391.6191
       CONSTANT HEAD =           0.0000         CONSTANT HEAD =           0.0000
               WELLS =           0.0000                 WELLS =           0.0000
       RIVER LEAKAGE =     1458095.5000         RIVER LEAKAGE =           0.0000
            RECHARGE =       82611.4609              RECHARGE =         343.4863

            TOTAL IN =     2576059.0000              TOTAL IN =        2735.1055

          OUT:                                     OUT:
          ----                                     ----
             STORAGE =     1583218.1250               STORAGE =         536.3974
       CONSTANT HEAD =           0.0000         CONSTANT HEAD =           0.0000
               WELLS =       36817.6836                 WELLS =         223.5936
       RIVER LEAKAGE =      956130.4375         RIVER LEAKAGE =        1974.6458
            RECHARGE =           0.0000              RECHARGE =           0.0000

           TOTAL OUT =     2576166.2500             TOTAL OUT =        2734.6367

            IN - OUT =        -107.2500              IN - OUT =           0.4688

 PERCENT DISCREPANCY =          -0.00     PERCENT DISCREPANCY =           0.02






         TIME SUMMARY AT END OF TIME STEP   75 IN STRESS PERIOD    3
                    SECONDS     MINUTES      HOURS       DAYS        YEARS
                    -----------------------------------------------------------
   TIME STEP LENGTH  86400.      1440.0      24.000      1.0000     2.73785E-03
 STRESS PERIOD TIME 6.48000E+06 1.08000E+05  1800.0      75.000     0.20534    
         TOTAL TIME 1.52064E+07 2.53440E+05  4224.0      176.00     0.48186    
1

 SOLVING FOR HEAD 

    ------------------------------------------------
       NWT REQUIRED            3 OUTER ITERATIONS 
       AND A TOTAL OF          3 INNER ITERATIONS.
    ------------------------------------------------

 OUTPUT CONTROL FOR STRESS PERIOD    3   TIME STEP   76
    SAVE HEAD FOR ALL LAYERS
    SAVE DRAWDOWN FOR ALL LAYERS
    SAVE BUDGET
    PRINT HEAD FOR ALL LAYERS
    PRINT BUDGET
1
              HEAD IN LAYER   1 AT END OF TIME STEP  76 IN STRESS PERIOD    3
  ---------------------------------------------------------------------------

            1           2           3           4           5           6           7           8           9          10
           11          12          13          14          15          16          17          18          19          20
 ........................................................................................................................
   1    0.000       0.000       0.000       0.000       0.000       7.357       7.353       7.377       7.391       7.405    
        7.438       7.521       7.575       7.364       7.555       7.476       7.398       7.378       0.000       0.000    
   2    0.000       0.000       0.000       0.000       7.434       7.430       7.392       7.457       7.466       7.474    
        7.498       7.562       7.604       7.362       7.546       7.448       7.387       7.375       0.000       0.000    
   3    0.000       0.000       0.000       7.530       7.530       7.510       7.500       7.526       7.543       7.545    
        7.557       7.597       7.654       7.361       7.528       7.374       7.373       7.376       0.000       0.000    
   4    0.000       0.000       7.656       7.597       7.554       7.362       7.364       7.363       7.361       7.361    
        7.362       7.372       7.597       7.359       7.523       7.429       7.389       7.387       0.000       0.000    
   5    0.000       0.000       7.482       7.391       7.359       7.368       7.566       7.582       7.572       7.576    
        7.564       7.363       7.359       7.366       7.511       7.441       7.402       7.403       7.417       0.000    
   6    0.000       7.358       7.358       7.360       7.416       7.572       7.579       7.534       7.510       7.512    
        7.536       7.528       7.536       7.520       7.487       7.425       7.402       7.406       7.419       0.000    
   7    0.000       7.568       7.563       7.560       7.562       7.541       7.490       7.452       7.433       7.426    
        7.436       7.461       7.474       7.465       7.430       7.401       7.393       7.397       0.000       0.000    
   8    0.000       7.535       7.517       7.510       7.497       7.468       7.439       7.420       7.403       7.384    
        7.367       7.392       7.408       7.409       7.396       7.382       7.374       7.380       0.000       0.000    
   9    0.000       0.000       7.458       7.456       7.450       7.439       7.427       7.414       7.395       7.362    
        7.287       7.356       7.381       7.386       7.378       7.359       7.336       7.359       7.377       7.390    
  10    0.000       0.000       7.440       7.440       7.438       7.434       7.427       7.416       7.397       7.370    
        7.340       7.360       7.376       7.379       7.367       7.331       7.246       7.333       7.371       7.387    

 HEAD WILL BE SAVED ON UNIT   51 AT END OF TIME STEP   76, STRESS PERIOD    3

 DRAWDOWN WILL BE SAVED ON UNIT   52 AT END OF TIME STEP   76, STRESS PERIOD    3
1
  VOLUMETRIC BUDGET FOR ENTIRE MODEL AT END OF TIME STEP   76, STRESS PERIOD   3
  ------------------------------------------------------------------------------

     CUMULATIVE VOLUMES      L**3       RATES FOR THIS TIME STEP      L**3/T
     ------------------                 ------------------------

           IN:                                      IN:
           ---                                      ---
             STORAGE =     1037715.5625               STORAGE =        2363.6340
       CONSTANT HEAD =           0.0000         CONSTANT HEAD =           0.0000
               WELLS =           0.0000                 WELLS =           0.0000
       RIVER LEAKAGE =     1458095.5000         RIVER LEAKAGE =           0.0000
            RECHARGE =       82954.9453              RECHARGE =         343.4863

            TOTAL IN =     2578766.0000              TOTAL IN =        2707.1204

          OUT:                                     OUT:
          ----                                     ----
             STORAGE =     1583747.2500               STORAGE =         529.1314
       CONSTANT HEAD =           0.0000         CONSTANT HEAD =           0.0000
               WELLS =       37041.2773                 WELLS =         223.5936
       RIVER LEAKAGE =      958084.3750         RIVER LEAKAGE =        1953.9318
            RECHARGE =           0.0000              RECHARGE =           0.0000

           TOTAL OUT =     2578873.0000             TOTAL OUT =        2706.6567

            IN - OUT =        -107.0000              IN - OUT =           0.4636

 PERCENT DISCREPANCY =          -0.00     PERCENT DISCREPANCY =           0.02






         TIME SUMMARY AT END OF TIME STEP   76 IN STRESS PERIOD    3
                    SECONDS     MINUTES      HOURS       DAYS        YEARS
                    -----------------------------------------------------------
   TIME STEP LENGTH  86400.      1440.0      24.000      1.0000     2.73785E-03
 STRESS PERIOD TIME 6.56640E+06 1.09440E+05  1824.0      76.000     0.20808    
         TOTAL TIME 1.52928E+07 2.54880E+05  4248.0      177.00     0.48460    
1

 SOLVING FOR HEAD 

    ------------------------------------------------
       NWT REQUIRED            3 OUTER ITERATIONS 
       AND A TOTAL OF          3 INNER ITERATIONS.
    ------------------------------------------------

 OUTPUT CONTROL FOR STRESS PERIOD    3   TIME STEP   77
    SAVE HEAD FOR ALL LAYERS
    SAVE DRAWDOWN FOR ALL LAYERS
    SAVE BUDGET
    PRINT HEAD FOR ALL LAYERS
    PRINT BUDGET
1
              HEAD IN LAYER   1 AT END OF TIME STEP  77 IN STRESS PERIOD    3
  ---------------------------------------------------------------------------

            1           2           3           4           5           6           7           8           9          10
           11          12          13          14          15          16          17          18          19          20
 ........................................................................................................................
   1    0.000       0.000       0.000       0.000       0.000       7.357       7.353       7.377       7.391       7.406    
        7.439       7.521       7.573       7.364       7.553       7.476       7.398       7.378       0.000       0.000    
   2    0.000       0.000       0.000       0.000       7.435       7.430       7.392       7.457       7.466       7.474    
        7.498       7.562       7.602       7.362       7.545       7.448       7.388       7.375       0.000       0.000    
   3    0.000       0.000       0.000       7.531       7.529       7.508       7.498       7.524       7.541       7.543    
        7.556       7.596       7.652       7.361       7.526       7.374       7.374       7.376       0.000       0.000    
   4    0.000       0.000       7.655       7.596       7.552       7.362       7.364       7.363       7.360       7.361    
        7.362       7.372       7.594       7.359       7.522       7.429       7.390       7.387       0.000       0.000    
   5    0.000       0.000       7.479       7.390       7.359       7.368       7.563       7.580       7.571       7.574    
        7.562       7.363       7.359       7.366       7.510       7.441       7.402       7.403       7.417       0.000    
   6    0.000       7.358       7.358       7.360       7.414       7.570       7.578       7.534       7.510       7.512    
        7.535       7.526       7.534       7.519       7.487       7.425       7.403       7.406       7.419       0.000    
   7    0.000       7.566       7.562       7.558       7.561       7.541       7.490       7.453       7.433       7.427    
        7.437       7.461       7.474       7.464       7.431       7.402       7.393       7.397       0.000       0.000    
   8    0.000       7.535       7.517       7.510       7.497       7.468       7.440       7.420       7.403       7.384    
        7.367       7.392       7.408       7.409       7.396       7.382       7.374       7.380       0.000       0.000    
   9    0.000       0.000       7.458       7.456       7.450       7.439       7.427       7.414       7.395       7.362    
        7.288       7.356       7.381       7.386       7.378       7.359       7.336       7.359       7.377       7.390    
  10    0.000       0.000       7.440       7.440       7.438       7.434       7.427       7.416       7.397       7.370    
        7.340       7.360       7.376       7.379       7.367       7.331       7.246       7.333       7.371       7.387    

 HEAD WILL BE SAVED ON UNIT   51 AT END OF TIME STEP   77, STRESS PERIOD    3

 DRAWDOWN WILL BE SAVED ON UNIT   52 AT END OF TIME STEP   77, STRESS PERIOD    3
1
  VOLUMETRIC BUDGET FOR ENTIRE MODEL AT END OF TIME STEP   77, STRESS PERIOD   3
  ------------------------------------------------------------------------------

     CUMULATIVE VOLUMES      L**3       RATES FOR THIS TIME STEP      L**3/T
     ------------------                 ------------------------

           IN:                                      IN:
           ---                                      ---
             STORAGE =     1040051.8750               STORAGE =        2336.3027
       CONSTANT HEAD =           0.0000         CONSTANT HEAD =           0.0000
               WELLS =           0.0000                 WELLS =           0.0000
       RIVER LEAKAGE =     1458095.5000         RIVER LEAKAGE =           0.0000
            RECHARGE =       83298.4297              RECHARGE =         343.4863

            TOTAL IN =     2581446.0000              TOTAL IN =        2679.7891

          OUT:                                     OUT:
          ----                                     ----
             STORAGE =     1584269.3750               STORAGE =         522.0967
       CONSTANT HEAD =           0.0000         CONSTANT HEAD =           0.0000
               WELLS =       37264.8711                 WELLS =         223.5936
       RIVER LEAKAGE =      960018.0000         RIVER LEAKAGE =        1933.6403
            RECHARGE =           0.0000              RECHARGE =           0.0000

           TOTAL OUT =     2581552.2500             TOTAL OUT =        2679.3306

            IN - OUT =        -106.2500              IN - OUT =           0.4585

 PERCENT DISCREPANCY =          -0.00     PERCENT DISCREPANCY =           0.02






         TIME SUMMARY AT END OF TIME STEP   77 IN STRESS PERIOD    3
                    SECONDS     MINUTES      HOURS       DAYS        YEARS
                    -----------------------------------------------------------
   TIME STEP LENGTH  86400.      1440.0      24.000      1.0000     2.73785E-03
 STRESS PERIOD TIME 6.65280E+06 1.10880E+05  1848.0      77.000     0.21081    
         TOTAL TIME 1.53792E+07 2.56320E+05  4272.0      178.00     0.48734    
1

 SOLVING FOR HEAD 

    ------------------------------------------------
       NWT REQUIRED            3 OUTER ITERATIONS 
       AND A TOTAL OF          3 INNER ITERATIONS.
    ------------------------------------------------

 OUTPUT CONTROL FOR STRESS PERIOD    3   TIME STEP   78
    SAVE HEAD FOR ALL LAYERS
    SAVE DRAWDOWN FOR ALL LAYERS
    SAVE BUDGET
    PRINT HEAD FOR ALL LAYERS
    PRINT BUDGET
1
              HEAD IN LAYER   1 AT END OF TIME STEP  78 IN STRESS PERIOD    3
  ---------------------------------------------------------------------------

            1           2           3           4           5           6           7           8           9          10
           11          12          13          14          15          16          17          18          19          20
 ........................................................................................................................
   1    0.000       0.000       0.000       0.000       0.000       7.357       7.353       7.378       7.392       7.406    
        7.439       7.521       7.571       7.364       7.551       7.476       7.398       7.378       0.000       0.000    
   2    0.000       0.000       0.000       0.000       7.435       7.429       7.391       7.456       7.466       7.474    
        7.498       7.562       7.601       7.362       7.543       7.448       7.388       7.376       0.000       0.000    
   3    0.000       0.000       0.000       7.531       7.529       7.507       7.496       7.522       7.540       7.542    
        7.554       7.594       7.650       7.361       7.525       7.374       7.374       7.376       0.000       0.000    
   4    0.000       0.000       7.654       7.594       7.550       7.361       7.364       7.363       7.360       7.361    
        7.362       7.371       7.591       7.359       7.521       7.429       7.390       7.387       0.000       0.000    
   5    0.000       0.000       7.477       7.390       7.359       7.368       7.561       7.578       7.569       7.572    
        7.560       7.363       7.359       7.366       7.509       7.441       7.402       7.403       7.417       0.000    
   6    0.000       7.358       7.358       7.360       7.413       7.568       7.577       7.534       7.510       7.512    
        7.535       7.525       7.533       7.518       7.486       7.425       7.403       7.407       7.419       0.000    
   7    0.000       7.565       7.560       7.557       7.560       7.540       7.491       7.453       7.434       7.427    
        7.437       7.461       7.474       7.464       7.431       7.402       7.393       7.397       0.000       0.000    
   8    0.000       7.535       7.517       7.510       7.497       7.469       7.440       7.420       7.403       7.384    
        7.367       7.393       7.409       7.409       7.396       7.382       7.374       7.380       0.000       0.000    
   9    0.000       0.000       7.458       7.456       7.451       7.439       7.427       7.414       7.395       7.362    
        7.288       7.356       7.381       7.386       7.378       7.359       7.336       7.359       7.377       7.390    
  10    0.000       0.000       7.440       7.440       7.438       7.434       7.427       7.416       7.397       7.370    
        7.340       7.360       7.376       7.379       7.367       7.331       7.246       7.333       7.371       7.387    

 HEAD WILL BE SAVED ON UNIT   51 AT END OF TIME STEP   78, STRESS PERIOD    3

 DRAWDOWN WILL BE SAVED ON UNIT   52 AT END OF TIME STEP   78, STRESS PERIOD    3
1
  VOLUMETRIC BUDGET FOR ENTIRE MODEL AT END OF TIME STEP   78, STRESS PERIOD   3
  ------------------------------------------------------------------------------

     CUMULATIVE VOLUMES      L**3       RATES FOR THIS TIME STEP      L**3/T
     ------------------                 ------------------------

           IN:                                      IN:
           ---                                      ---
             STORAGE =     1042361.3750               STORAGE =        2309.5120
       CONSTANT HEAD =           0.0000         CONSTANT HEAD =           0.0000
               WELLS =           0.0000                 WELLS =           0.0000
       RIVER LEAKAGE =     1458095.5000         RIVER LEAKAGE =           0.0000
            RECHARGE =       83641.9141              RECHARGE =         343.4863

            TOTAL IN =     2584099.0000              TOTAL IN =        2652.9983

          OUT:                                     OUT:
          ----                                     ----
             STORAGE =     1584784.6250               STORAGE =         515.1879
       CONSTANT HEAD =           0.0000         CONSTANT HEAD =           0.0000
               WELLS =       37488.4648                 WELLS =         223.5936
       RIVER LEAKAGE =      961931.7500         RIVER LEAKAGE =        1913.7634
            RECHARGE =           0.0000              RECHARGE =           0.0000

           TOTAL OUT =     2584205.0000             TOTAL OUT =        2652.5449

            IN - OUT =        -106.0000              IN - OUT =           0.4534

 PERCENT DISCREPANCY =          -0.00     PERCENT DISCREPANCY =           0.02






         TIME SUMMARY AT END OF TIME STEP   78 IN STRESS PERIOD    3
                    SECONDS     MINUTES      HOURS       DAYS        YEARS
                    -----------------------------------------------------------
   TIME STEP LENGTH  86400.      1440.0      24.000      1.0000     2.73785E-03
 STRESS PERIOD TIME 6.73920E+06 1.12320E+05  1872.0      78.000     0.21355    
         TOTAL TIME 1.54656E+07 2.57760E+05  4296.0      179.00     0.49008    
1

 SOLVING FOR HEAD 

    ------------------------------------------------
       NWT REQUIRED            3 OUTER ITERATIONS 
       AND A TOTAL OF          3 INNER ITERATIONS.
    ------------------------------------------------

 OUTPUT CONTROL FOR STRESS PERIOD    3   TIME STEP   79
    SAVE HEAD FOR ALL LAYERS
    SAVE DRAWDOWN FOR ALL LAYERS
    SAVE BUDGET
    PRINT HEAD FOR ALL LAYERS
    PRINT BUDGET
1
              HEAD IN LAYER   1 AT END OF TIME STEP  79 IN STRESS PERIOD    3
  ---------------------------------------------------------------------------

            1           2           3           4           5           6           7           8           9          10
           11          12          13          14          15          16          17          18          19          20
 ........................................................................................................................
   1    0.000       0.000       0.000       0.000       0.000       7.358       7.354       7.378       7.392       7.407    
        7.440       7.521       7.569       7.364       7.548       7.476       7.399       7.378       0.000       0.000    
   2    0.000       0.000       0.000       0.000       7.436       7.429       7.391       7.456       7.466       7.474    
        7.498       7.561       7.599       7.362       7.541       7.448       7.388       7.376       0.000       0.000    
   3    0.000       0.000       0.000       7.532       7.528       7.505       7.494       7.520       7.538       7.541    
        7.553       7.593       7.647       7.361       7.524       7.374       7.374       7.376       0.000       0.000    
   4    0.000       0.000       7.652       7.593       7.548       7.361       7.364       7.363       7.360       7.361    
        7.362       7.371       7.588       7.359       7.520       7.430       7.390       7.387       0.000       0.000    
   5    0.000       0.000       7.475       7.389       7.358       7.368       7.559       7.577       7.568       7.571    
        7.558       7.363       7.359       7.365       7.508       7.441       7.402       7.403       7.417       0.000    
   6    0.000       7.358       7.358       7.360       7.412       7.566       7.576       7.534       7.510       7.512    
        7.534       7.524       7.531       7.517       7.486       7.425       7.403       7.407       7.419       0.000    
   7    0.000       7.564       7.559       7.556       7.559       7.540       7.491       7.454       7.434       7.428    
        7.437       7.461       7.474       7.464       7.431       7.402       7.393       7.397       0.000       0.000    
   8    0.000       7.535       7.517       7.510       7.497       7.469       7.440       7.420       7.403       7.385    
        7.368       7.393       7.409       7.409       7.396       7.382       7.374       7.380       0.000       0.000    
   9    0.000       0.000       7.458       7.457       7.451       7.440       7.428       7.414       7.395       7.362    
        7.288       7.356       7.381       7.386       7.378       7.359       7.336       7.359       7.377       7.390    
  10    0.000       0.000       7.440       7.440       7.438       7.434       7.427       7.416       7.397       7.370    
        7.340       7.360       7.376       7.379       7.367       7.331       7.246       7.333       7.371       7.387    

 HEAD WILL BE SAVED ON UNIT   51 AT END OF TIME STEP   79, STRESS PERIOD    3

 DRAWDOWN WILL BE SAVED ON UNIT   52 AT END OF TIME STEP   79, STRESS PERIOD    3
1
  VOLUMETRIC BUDGET FOR ENTIRE MODEL AT END OF TIME STEP   79, STRESS PERIOD   3
  ------------------------------------------------------------------------------

     CUMULATIVE VOLUMES      L**3       RATES FOR THIS TIME STEP      L**3/T
     ------------------                 ------------------------

           IN:                                      IN:
           ---                                      ---
             STORAGE =     1044644.5625               STORAGE =        2283.1858
       CONSTANT HEAD =           0.0000         CONSTANT HEAD =           0.0000
               WELLS =           0.0000                 WELLS =           0.0000
       RIVER LEAKAGE =     1458095.5000         RIVER LEAKAGE =           0.0000
            RECHARGE =       83985.3984              RECHARGE =         343.4863

            TOTAL IN =     2586725.5000              TOTAL IN =        2626.6721

          OUT:                                     OUT:
          ----                                     ----
             STORAGE =     1585293.0000               STORAGE =         508.3421
       CONSTANT HEAD =           0.0000         CONSTANT HEAD =           0.0000
               WELLS =       37712.0586                 WELLS =         223.5936
       RIVER LEAKAGE =      963826.0625         RIVER LEAKAGE =        1894.2881
            RECHARGE =           0.0000              RECHARGE =           0.0000

           TOTAL OUT =     2586831.0000             TOTAL OUT =        2626.2236

            IN - OUT =        -105.5000              IN - OUT =           0.4485

 PERCENT DISCREPANCY =          -0.00     PERCENT DISCREPANCY =           0.02






         TIME SUMMARY AT END OF TIME STEP   79 IN STRESS PERIOD    3
                    SECONDS     MINUTES      HOURS       DAYS        YEARS
                    -----------------------------------------------------------
   TIME STEP LENGTH  86400.      1440.0      24.000      1.0000     2.73785E-03
 STRESS PERIOD TIME 6.82560E+06 1.13760E+05  1896.0      79.000     0.21629    
         TOTAL TIME 1.55520E+07 2.59200E+05  4320.0      180.00     0.49281    
1

 SOLVING FOR HEAD 

    ------------------------------------------------
       NWT REQUIRED            3 OUTER ITERATIONS 
       AND A TOTAL OF          3 INNER ITERATIONS.
    ------------------------------------------------

 OUTPUT CONTROL FOR STRESS PERIOD    3   TIME STEP   80
    SAVE HEAD FOR ALL LAYERS
    SAVE DRAWDOWN FOR ALL LAYERS
    SAVE BUDGET
    PRINT HEAD FOR ALL LAYERS
    PRINT BUDGET
1
              HEAD IN LAYER   1 AT END OF TIME STEP  80 IN STRESS PERIOD    3
  ---------------------------------------------------------------------------

            1           2           3           4           5           6           7           8           9          10
           11          12          13          14          15          16          17          18          19          20
 ........................................................................................................................
   1    0.000       0.000       0.000       0.000       0.000       7.358       7.354       7.379       7.393       7.407    
        7.440       7.521       7.567       7.364       7.547       7.476       7.399       7.378       0.000       0.000    
   2    0.000       0.000       0.000       0.000       7.437       7.429       7.391       7.456       7.466       7.474    
        7.498       7.561       7.597       7.362       7.539       7.448       7.388       7.376       0.000       0.000    
   3    0.000       0.000       0.000       7.532       7.528       7.504       7.492       7.519       7.537       7.539    
        7.552       7.592       7.645       7.361       7.522       7.374       7.374       7.376       0.000       0.000    
   4    0.000       0.000       7.651       7.591       7.546       7.361       7.364       7.363       7.360       7.361    
        7.362       7.371       7.585       7.359       7.519       7.430       7.390       7.388       0.000       0.000    
   5    0.000       0.000       7.472       7.389       7.358       7.367       7.556       7.575       7.567       7.569    
        7.556       7.363       7.359       7.365       7.507       7.441       7.403       7.403       7.417       0.000    
   6    0.000       7.358       7.358       7.360       7.411       7.564       7.575       7.534       7.510       7.512    
        7.534       7.523       7.530       7.516       7.486       7.425       7.403       7.407       7.419       0.000    
   7    0.000       7.562       7.558       7.554       7.557       7.540       7.491       7.454       7.434       7.428    
        7.437       7.461       7.474       7.464       7.431       7.402       7.393       7.397       0.000       0.000    
   8    0.000       7.535       7.517       7.510       7.497       7.469       7.441       7.421       7.403       7.385    
        7.368       7.393       7.409       7.410       7.396       7.382       7.374       7.380       0.000       0.000    
   9    0.000       0.000       7.459       7.457       7.451       7.440       7.428       7.414       7.395       7.362    
        7.288       7.356       7.381       7.387       7.378       7.359       7.336       7.359       7.377       7.390    
  10    0.000       0.000       7.440       7.440       7.439       7.434       7.427       7.416       7.397       7.370    
        7.340       7.360       7.376       7.379       7.367       7.331       7.246       7.333       7.371       7.387    

 HEAD WILL BE SAVED ON UNIT   51 AT END OF TIME STEP   80, STRESS PERIOD    3

 DRAWDOWN WILL BE SAVED ON UNIT   52 AT END OF TIME STEP   80, STRESS PERIOD    3
1
  VOLUMETRIC BUDGET FOR ENTIRE MODEL AT END OF TIME STEP   80, STRESS PERIOD   3
  ------------------------------------------------------------------------------

     CUMULATIVE VOLUMES      L**3       RATES FOR THIS TIME STEP      L**3/T
     ------------------                 ------------------------

           IN:                                      IN:
           ---                                      ---
             STORAGE =     1046902.1875               STORAGE =        2257.6008
       CONSTANT HEAD =           0.0000         CONSTANT HEAD =           0.0000
               WELLS =           0.0000                 WELLS =           0.0000
       RIVER LEAKAGE =     1458095.5000         RIVER LEAKAGE =           0.0000
            RECHARGE =       84328.8828              RECHARGE =         343.4863

            TOTAL IN =     2589326.7500              TOTAL IN =        2601.0872

          OUT:                                     OUT:
          ----                                     ----
             STORAGE =     1585794.8750               STORAGE =         501.8655
       CONSTANT HEAD =           0.0000         CONSTANT HEAD =           0.0000
               WELLS =       37935.6523                 WELLS =         223.5936
       RIVER LEAKAGE =      965701.2500         RIVER LEAKAGE =        1875.1846
            RECHARGE =           0.0000              RECHARGE =           0.0000

           TOTAL OUT =     2589431.7500             TOTAL OUT =        2600.6436

            IN - OUT =        -105.0000              IN - OUT =           0.4436

 PERCENT DISCREPANCY =          -0.00     PERCENT DISCREPANCY =           0.02






         TIME SUMMARY AT END OF TIME STEP   80 IN STRESS PERIOD    3
                    SECONDS     MINUTES      HOURS       DAYS        YEARS
                    -----------------------------------------------------------
   TIME STEP LENGTH  86400.      1440.0      24.000      1.0000     2.73785E-03
 STRESS PERIOD TIME 6.91200E+06 1.15200E+05  1920.0      80.000     0.21903    
         TOTAL TIME 1.56384E+07 2.60640E+05  4344.0      181.00     0.49555    
1

 SOLVING FOR HEAD 

    ------------------------------------------------
       NWT REQUIRED            3 OUTER ITERATIONS 
       AND A TOTAL OF          3 INNER ITERATIONS.
    ------------------------------------------------

 OUTPUT CONTROL FOR STRESS PERIOD    3   TIME STEP   81
    SAVE HEAD FOR ALL LAYERS
    SAVE DRAWDOWN FOR ALL LAYERS
    SAVE BUDGET
    PRINT HEAD FOR ALL LAYERS
    PRINT BUDGET
1
              HEAD IN LAYER   1 AT END OF TIME STEP  81 IN STRESS PERIOD    3
  ---------------------------------------------------------------------------

            1           2           3           4           5           6           7           8           9          10
           11          12          13          14          15          16          17          18          19          20
 ........................................................................................................................
   1    0.000       0.000       0.000       0.000       0.000       7.359       7.355       7.379       7.393       7.408    
        7.441       7.521       7.566       7.363       7.545       7.476       7.399       7.378       0.000       0.000    
   2    0.000       0.000       0.000       0.000       7.437       7.429       7.390       7.456       7.466       7.474    
        7.499       7.561       7.596       7.362       7.538       7.448       7.389       7.376       0.000       0.000    
   3    0.000       0.000       0.000       7.532       7.527       7.502       7.491       7.517       7.535       7.538    
        7.551       7.590       7.643       7.361       7.521       7.374       7.375       7.376       0.000       0.000    
   4    0.000       0.000       7.650       7.590       7.544       7.361       7.364       7.363       7.360       7.361    
        7.362       7.371       7.582       7.359       7.517       7.430       7.390       7.388       0.000       0.000    
   5    0.000       0.000       7.470       7.388       7.358       7.367       7.554       7.573       7.565       7.568    
        7.554       7.363       7.359       7.365       7.506       7.441       7.403       7.403       7.417       0.000    
   6    0.000       7.358       7.358       7.360       7.411       7.562       7.574       7.534       7.510       7.512    
        7.533       7.522       7.529       7.514       7.486       7.426       7.403       7.407       7.419       0.000    
   7    0.000       7.561       7.556       7.553       7.556       7.539       7.491       7.454       7.435       7.428    
        7.438       7.461       7.474       7.464       7.431       7.402       7.393       7.397       0.000       0.000    
   8    0.000       7.535       7.517       7.510       7.497       7.470       7.441       7.421       7.404       7.385    
        7.368       7.393       7.409       7.410       7.396       7.382       7.374       7.380       0.000       0.000    
   9    0.000       0.000       7.459       7.457       7.451       7.440       7.428       7.415       7.395       7.362    
        7.288       7.356       7.381       7.387       7.378       7.359       7.336       7.359       7.377       7.390    
  10    0.000       0.000       7.440       7.440       7.439       7.434       7.427       7.416       7.397       7.370    
        7.340       7.360       7.376       7.379       7.367       7.331       7.246       7.333       7.371       7.387    

 HEAD WILL BE SAVED ON UNIT   51 AT END OF TIME STEP   81, STRESS PERIOD    3

 DRAWDOWN WILL BE SAVED ON UNIT   52 AT END OF TIME STEP   81, STRESS PERIOD    3
1
  VOLUMETRIC BUDGET FOR ENTIRE MODEL AT END OF TIME STEP   81, STRESS PERIOD   3
  ------------------------------------------------------------------------------

     CUMULATIVE VOLUMES      L**3       RATES FOR THIS TIME STEP      L**3/T
     ------------------                 ------------------------

           IN:                                      IN:
           ---                                      ---
             STORAGE =     1049134.6250               STORAGE =        2232.4934
       CONSTANT HEAD =           0.0000         CONSTANT HEAD =           0.0000
               WELLS =           0.0000                 WELLS =           0.0000
       RIVER LEAKAGE =     1458095.5000         RIVER LEAKAGE =           0.0000
            RECHARGE =       84672.3672              RECHARGE =         343.4863

            TOTAL IN =     2591902.2500              TOTAL IN =        2575.9797

          OUT:                                     OUT:
          ----                                     ----
             STORAGE =     1586290.3750               STORAGE =         495.4797
       CONSTANT HEAD =           0.0000         CONSTANT HEAD =           0.0000
               WELLS =       38159.2461                 WELLS =         223.5936
       RIVER LEAKAGE =      967557.6875         RIVER LEAKAGE =        1856.4677
            RECHARGE =           0.0000              RECHARGE =           0.0000

           TOTAL OUT =     2592007.2500             TOTAL OUT =        2575.5410

            IN - OUT =        -105.0000              IN - OUT =           0.4387

 PERCENT DISCREPANCY =          -0.00     PERCENT DISCREPANCY =           0.02






         TIME SUMMARY AT END OF TIME STEP   81 IN STRESS PERIOD    3
                    SECONDS     MINUTES      HOURS       DAYS        YEARS
                    -----------------------------------------------------------
   TIME STEP LENGTH  86400.      1440.0      24.000      1.0000     2.73785E-03
 STRESS PERIOD TIME 6.99840E+06 1.16640E+05  1944.0      81.000     0.22177    
         TOTAL TIME 1.57248E+07 2.62080E+05  4368.0      182.00     0.49829    
1

 SOLVING FOR HEAD 

    ------------------------------------------------
       NWT REQUIRED            3 OUTER ITERATIONS 
       AND A TOTAL OF          3 INNER ITERATIONS.
    ------------------------------------------------

 OUTPUT CONTROL FOR STRESS PERIOD    3   TIME STEP   82
    SAVE HEAD FOR ALL LAYERS
    SAVE DRAWDOWN FOR ALL LAYERS
    SAVE BUDGET
    PRINT HEAD FOR ALL LAYERS
    PRINT BUDGET
1
              HEAD IN LAYER   1 AT END OF TIME STEP  82 IN STRESS PERIOD    3
  ---------------------------------------------------------------------------

            1           2           3           4           5           6           7           8           9          10
           11          12          13          14          15          16          17          18          19          20
 ........................................................................................................................
   1    0.000       0.000       0.000       0.000       0.000       7.359       7.355       7.380       7.394       7.408    
        7.442       7.521       7.564       7.363       7.543       7.475       7.399       7.379       0.000       0.000    
   2    0.000       0.000       0.000       0.000       7.438       7.429       7.390       7.455       7.466       7.474    
        7.499       7.561       7.594       7.362       7.536       7.448       7.389       7.376       0.000       0.000    
   3    0.000       0.000       0.000       7.533       7.527       7.501       7.489       7.515       7.534       7.537    
        7.549       7.589       7.641       7.361       7.519       7.375       7.375       7.376       0.000       0.000    
   4    0.000       0.000       7.649       7.588       7.542       7.361       7.364       7.363       7.360       7.361    
        7.362       7.371       7.579       7.359       7.516       7.430       7.391       7.388       0.000       0.000    
   5    0.000       0.000       7.468       7.387       7.358       7.367       7.552       7.571       7.564       7.566    
        7.552       7.362       7.359       7.365       7.505       7.441       7.403       7.403       7.417       0.000    
   6    0.000       7.358       7.358       7.360       7.410       7.560       7.574       7.534       7.510       7.512    
        7.533       7.521       7.527       7.513       7.485       7.426       7.403       7.407       7.419       0.000    
   7    0.000       7.560       7.555       7.552       7.555       7.539       7.492       7.455       7.435       7.429    
        7.438       7.461       7.474       7.464       7.432       7.402       7.393       7.397       0.000       0.000    
   8    0.000       7.535       7.517       7.510       7.497       7.470       7.441       7.421       7.404       7.385    
        7.368       7.393       7.409       7.410       7.397       7.382       7.374       7.380       0.000       0.000    
   9    0.000       0.000       7.459       7.457       7.451       7.440       7.428       7.415       7.395       7.362    
        7.288       7.356       7.381       7.387       7.378       7.359       7.336       7.359       7.377       7.390    
  10    0.000       0.000       7.441       7.440       7.439       7.434       7.427       7.416       7.397       7.370    
        7.340       7.360       7.376       7.379       7.367       7.331       7.246       7.333       7.371       7.387    

 HEAD WILL BE SAVED ON UNIT   51 AT END OF TIME STEP   82, STRESS PERIOD    3

 DRAWDOWN WILL BE SAVED ON UNIT   52 AT END OF TIME STEP   82, STRESS PERIOD    3
1
  VOLUMETRIC BUDGET FOR ENTIRE MODEL AT END OF TIME STEP   82, STRESS PERIOD   3
  ------------------------------------------------------------------------------

     CUMULATIVE VOLUMES      L**3       RATES FOR THIS TIME STEP      L**3/T
     ------------------                 ------------------------

           IN:                                      IN:
           ---                                      ---
             STORAGE =     1051342.3750               STORAGE =        2207.8083
       CONSTANT HEAD =           0.0000         CONSTANT HEAD =           0.0000
               WELLS =           0.0000                 WELLS =           0.0000
       RIVER LEAKAGE =     1458095.5000         RIVER LEAKAGE =           0.0000
            RECHARGE =       85015.8516              RECHARGE =         343.4863

            TOTAL IN =     2594453.7500              TOTAL IN =        2551.2947

          OUT:                                     OUT:
          ----                                     ----
             STORAGE =     1586779.5000               STORAGE =         489.1659
       CONSTANT HEAD =           0.0000         CONSTANT HEAD =           0.0000
               WELLS =       38382.8398                 WELLS =         223.5936
       RIVER LEAKAGE =      969395.8125         RIVER LEAKAGE =        1838.1012
            RECHARGE =           0.0000              RECHARGE =           0.0000

           TOTAL OUT =     2594558.2500             TOTAL OUT =        2550.8608

            IN - OUT =        -104.5000              IN - OUT =           0.4338

 PERCENT DISCREPANCY =          -0.00     PERCENT DISCREPANCY =           0.02






         TIME SUMMARY AT END OF TIME STEP   82 IN STRESS PERIOD    3
                    SECONDS     MINUTES      HOURS       DAYS        YEARS
                    -----------------------------------------------------------
   TIME STEP LENGTH  86400.      1440.0      24.000      1.0000     2.73785E-03
 STRESS PERIOD TIME 7.08480E+06 1.18080E+05  1968.0      82.000     0.22450    
         TOTAL TIME 1.58112E+07 2.63520E+05  4392.0      183.00     0.50103    
1

 SOLVING FOR HEAD 

    ------------------------------------------------
       NWT REQUIRED            3 OUTER ITERATIONS 
       AND A TOTAL OF          3 INNER ITERATIONS.
    ------------------------------------------------

 OUTPUT CONTROL FOR STRESS PERIOD    3   TIME STEP   83
    SAVE HEAD FOR ALL LAYERS
    SAVE DRAWDOWN FOR ALL LAYERS
    SAVE BUDGET
    PRINT HEAD FOR ALL LAYERS
    PRINT BUDGET
1
              HEAD IN LAYER   1 AT END OF TIME STEP  83 IN STRESS PERIOD    3
  ---------------------------------------------------------------------------

            1           2           3           4           5           6           7           8           9          10
           11          12          13          14          15          16          17          18          19          20
 ........................................................................................................................
   1    0.000       0.000       0.000       0.000       0.000       7.360       7.355       7.380       7.394       7.409    
        7.442       7.521       7.562       7.363       7.541       7.475       7.400       7.379       0.000       0.000    
   2    0.000       0.000       0.000       0.000       7.438       7.429       7.389       7.455       7.466       7.474    
        7.499       7.561       7.592       7.362       7.534       7.448       7.389       7.376       0.000       0.000    
   3    0.000       0.000       0.000       7.533       7.526       7.500       7.487       7.513       7.532       7.536    
        7.548       7.588       7.639       7.360       7.518       7.375       7.375       7.376       0.000       0.000    
   4    0.000       0.000       7.647       7.587       7.540       7.361       7.363       7.362       7.360       7.361    
        7.362       7.371       7.576       7.359       7.515       7.430       7.391       7.388       0.000       0.000    
   5    0.000       0.000       7.466       7.387       7.358       7.367       7.550       7.570       7.562       7.565    
        7.550       7.362       7.359       7.365       7.504       7.441       7.403       7.403       7.417       0.000    
   6    0.000       7.357       7.358       7.360       7.409       7.558       7.573       7.534       7.510       7.512    
        7.532       7.520       7.526       7.512       7.485       7.426       7.403       7.407       7.419       0.000    
   7    0.000       7.558       7.554       7.551       7.554       7.538       7.492       7.455       7.436       7.429    
        7.438       7.461       7.474       7.464       7.432       7.403       7.393       7.397       0.000       0.000    
   8    0.000       7.536       7.517       7.510       7.497       7.470       7.442       7.421       7.404       7.385    
        7.368       7.393       7.410       7.410       7.397       7.382       7.374       7.380       0.000       0.000    
   9    0.000       0.000       7.460       7.458       7.452       7.440       7.428       7.415       7.395       7.362    
        7.288       7.357       7.381       7.387       7.378       7.359       7.336       7.359       7.377       7.390    
  10    0.000       0.000       7.441       7.441       7.439       7.435       7.427       7.416       7.397       7.370    
        7.340       7.360       7.376       7.379       7.367       7.331       7.245       7.333       7.371       7.387    

 HEAD WILL BE SAVED ON UNIT   51 AT END OF TIME STEP   83, STRESS PERIOD    3

 DRAWDOWN WILL BE SAVED ON UNIT   52 AT END OF TIME STEP   83, STRESS PERIOD    3
1
  VOLUMETRIC BUDGET FOR ENTIRE MODEL AT END OF TIME STEP   83, STRESS PERIOD   3
  ------------------------------------------------------------------------------

     CUMULATIVE VOLUMES      L**3       RATES FOR THIS TIME STEP      L**3/T
     ------------------                 ------------------------

           IN:                                      IN:
           ---                                      ---
             STORAGE =     1053526.1250               STORAGE =        2183.7334
       CONSTANT HEAD =           0.0000         CONSTANT HEAD =           0.0000
               WELLS =           0.0000                 WELLS =           0.0000
       RIVER LEAKAGE =     1458095.5000         RIVER LEAKAGE =           0.0000
            RECHARGE =       85359.3359              RECHARGE =         343.4863

            TOTAL IN =     2596980.7500              TOTAL IN =        2527.2197

          OUT:                                     OUT:
          ----                                     ----
             STORAGE =     1587262.6250               STORAGE =         483.1112
       CONSTANT HEAD =           0.0000         CONSTANT HEAD =           0.0000
               WELLS =       38606.4336                 WELLS =         223.5936
       RIVER LEAKAGE =      971215.8750         RIVER LEAKAGE =        1820.0854
            RECHARGE =           0.0000              RECHARGE =           0.0000

           TOTAL OUT =     2597085.0000             TOTAL OUT =        2526.7903

            IN - OUT =        -104.2500              IN - OUT =           0.4294

 PERCENT DISCREPANCY =          -0.00     PERCENT DISCREPANCY =           0.02






         TIME SUMMARY AT END OF TIME STEP   83 IN STRESS PERIOD    3
                    SECONDS     MINUTES      HOURS       DAYS        YEARS
                    -----------------------------------------------------------
   TIME STEP LENGTH  86400.      1440.0      24.000      1.0000     2.73785E-03
 STRESS PERIOD TIME 7.17120E+06 1.19520E+05  1992.0      83.000     0.22724    
         TOTAL TIME 1.58976E+07 2.64960E+05  4416.0      184.00     0.50376    
1

 SOLVING FOR HEAD 

    ------------------------------------------------
       NWT REQUIRED            3 OUTER ITERATIONS 
       AND A TOTAL OF          3 INNER ITERATIONS.
    ------------------------------------------------

 OUTPUT CONTROL FOR STRESS PERIOD    3   TIME STEP   84
    SAVE HEAD FOR ALL LAYERS
    SAVE DRAWDOWN FOR ALL LAYERS
    SAVE BUDGET
    PRINT HEAD FOR ALL LAYERS
    PRINT BUDGET
1
              HEAD IN LAYER   1 AT END OF TIME STEP  84 IN STRESS PERIOD    3
  ---------------------------------------------------------------------------

            1           2           3           4           5           6           7           8           9          10
           11          12          13          14          15          16          17          18          19          20
 ........................................................................................................................
   1    0.000       0.000       0.000       0.000       0.000       7.360       7.356       7.381       7.395       7.409    
        7.443       7.522       7.560       7.363       7.539       7.475       7.400       7.379       0.000       0.000    
   2    0.000       0.000       0.000       0.000       7.439       7.429       7.389       7.455       7.466       7.475    
        7.499       7.561       7.591       7.362       7.533       7.447       7.390       7.376       0.000       0.000    
   3    0.000       0.000       0.000       7.533       7.526       7.498       7.486       7.512       7.531       7.534    
        7.547       7.586       7.636       7.360       7.517       7.375       7.375       7.376       0.000       0.000    
   4    0.000       0.000       7.646       7.586       7.538       7.361       7.363       7.362       7.360       7.361    
        7.362       7.371       7.573       7.358       7.514       7.430       7.391       7.388       0.000       0.000    
   5    0.000       0.000       7.464       7.387       7.358       7.367       7.547       7.568       7.561       7.563    
        7.548       7.362       7.359       7.365       7.503       7.441       7.403       7.403       7.417       0.000    
   6    0.000       7.357       7.357       7.359       7.408       7.556       7.572       7.534       7.510       7.512    
        7.532       7.519       7.525       7.511       7.485       7.426       7.403       7.407       7.419       0.000    
   7    0.000       7.557       7.552       7.549       7.552       7.538       7.492       7.456       7.436       7.429    
        7.439       7.461       7.473       7.464       7.432       7.403       7.393       7.397       0.000       0.000    
   8    0.000       7.536       7.517       7.510       7.497       7.470       7.442       7.421       7.404       7.385    
        7.369       7.394       7.410       7.410       7.397       7.382       7.374       7.380       0.000       0.000    
   9    0.000       0.000       7.460       7.458       7.452       7.440       7.428       7.415       7.395       7.362    
        7.288       7.357       7.381       7.387       7.378       7.359       7.336       7.359       7.377       7.390    
  10    0.000       0.000       7.441       7.441       7.439       7.435       7.427       7.416       7.397       7.370    
        7.340       7.360       7.376       7.379       7.367       7.331       7.245       7.333       7.371       7.387    

 HEAD WILL BE SAVED ON UNIT   51 AT END OF TIME STEP   84, STRESS PERIOD    3

 DRAWDOWN WILL BE SAVED ON UNIT   52 AT END OF TIME STEP   84, STRESS PERIOD    3
1
  VOLUMETRIC BUDGET FOR ENTIRE MODEL AT END OF TIME STEP   84, STRESS PERIOD   3
  ------------------------------------------------------------------------------

     CUMULATIVE VOLUMES      L**3       RATES FOR THIS TIME STEP      L**3/T
     ------------------                 ------------------------

           IN:                                      IN:
           ---                                      ---
             STORAGE =     1055686.1250               STORAGE =        2160.0459
       CONSTANT HEAD =           0.0000         CONSTANT HEAD =           0.0000
               WELLS =           0.0000                 WELLS =           0.0000
       RIVER LEAKAGE =     1458095.5000         RIVER LEAKAGE =           0.0000
            RECHARGE =       85702.8203              RECHARGE =         343.4863

            TOTAL IN =     2599484.2500              TOTAL IN =        2503.5322

          OUT:                                     OUT:
          ----                                     ----
             STORAGE =     1587739.7500               STORAGE =         477.1073
       CONSTANT HEAD =           0.0000         CONSTANT HEAD =           0.0000
               WELLS =       38830.0273                 WELLS =         223.5936
       RIVER LEAKAGE =      973018.3125         RIVER LEAKAGE =        1802.4065
            RECHARGE =           0.0000              RECHARGE =           0.0000

           TOTAL OUT =     2599588.0000             TOTAL OUT =        2503.1074

            IN - OUT =        -103.7500              IN - OUT =           0.4248

 PERCENT DISCREPANCY =          -0.00     PERCENT DISCREPANCY =           0.02






         TIME SUMMARY AT END OF TIME STEP   84 IN STRESS PERIOD    3
                    SECONDS     MINUTES      HOURS       DAYS        YEARS
                    -----------------------------------------------------------
   TIME STEP LENGTH  86400.      1440.0      24.000      1.0000     2.73785E-03
 STRESS PERIOD TIME 7.25760E+06 1.20960E+05  2016.0      84.000     0.22998    
         TOTAL TIME 1.59840E+07 2.66400E+05  4440.0      185.00     0.50650    
1

 SOLVING FOR HEAD 

    ------------------------------------------------
       NWT REQUIRED            3 OUTER ITERATIONS 
       AND A TOTAL OF          3 INNER ITERATIONS.
    ------------------------------------------------

 OUTPUT CONTROL FOR STRESS PERIOD    3   TIME STEP   85
    SAVE HEAD FOR ALL LAYERS
    SAVE DRAWDOWN FOR ALL LAYERS
    SAVE BUDGET
    PRINT HEAD FOR ALL LAYERS
    PRINT BUDGET
1
              HEAD IN LAYER   1 AT END OF TIME STEP  85 IN STRESS PERIOD    3
  ---------------------------------------------------------------------------

            1           2           3           4           5           6           7           8           9          10
           11          12          13          14          15          16          17          18          19          20
 ........................................................................................................................
   1    0.000       0.000       0.000       0.000       0.000       7.361       7.356       7.381       7.395       7.410    
        7.444       7.522       7.558       7.363       7.537       7.475       7.400       7.379       0.000       0.000    
   2    0.000       0.000       0.000       0.000       7.439       7.429       7.389       7.455       7.466       7.475    
        7.499       7.560       7.589       7.362       7.531       7.447       7.390       7.377       0.000       0.000    
   3    0.000       0.000       0.000       7.534       7.525       7.497       7.484       7.510       7.530       7.533    
        7.546       7.585       7.634       7.360       7.515       7.375       7.375       7.377       0.000       0.000    
   4    0.000       0.000       7.645       7.584       7.537       7.361       7.363       7.362       7.360       7.361    
        7.362       7.370       7.570       7.358       7.513       7.430       7.391       7.388       0.000       0.000    
   5    0.000       0.000       7.462       7.386       7.358       7.367       7.545       7.566       7.560       7.562    
        7.546       7.362       7.359       7.365       7.502       7.441       7.403       7.403       7.417       0.000    
   6    0.000       7.357       7.357       7.359       7.407       7.554       7.571       7.534       7.510       7.512    
        7.531       7.517       7.523       7.510       7.484       7.426       7.403       7.407       7.419       0.000    
   7    0.000       7.556       7.551       7.548       7.551       7.538       7.493       7.456       7.436       7.430    
        7.439       7.461       7.473       7.464       7.432       7.403       7.393       7.397       0.000       0.000    
   8    0.000       7.536       7.517       7.510       7.497       7.471       7.442       7.422       7.404       7.386    
        7.369       7.394       7.410       7.410       7.397       7.382       7.374       7.380       0.000       0.000    
   9    0.000       0.000       7.460       7.458       7.452       7.441       7.428       7.415       7.395       7.362    
        7.288       7.357       7.382       7.387       7.378       7.359       7.336       7.359       7.377       7.390    
  10    0.000       0.000       7.441       7.441       7.439       7.435       7.427       7.416       7.397       7.370    
        7.340       7.360       7.376       7.379       7.367       7.331       7.245       7.333       7.371       7.387    

 HEAD WILL BE SAVED ON UNIT   51 AT END OF TIME STEP   85, STRESS PERIOD    3

 DRAWDOWN WILL BE SAVED ON UNIT   52 AT END OF TIME STEP   85, STRESS PERIOD    3
1
  VOLUMETRIC BUDGET FOR ENTIRE MODEL AT END OF TIME STEP   85, STRESS PERIOD   3
  ------------------------------------------------------------------------------

     CUMULATIVE VOLUMES      L**3       RATES FOR THIS TIME STEP      L**3/T
     ------------------                 ------------------------

           IN:                                      IN:
           ---                                      ---
             STORAGE =     1057822.8750               STORAGE =        2136.7852
       CONSTANT HEAD =           0.0000         CONSTANT HEAD =           0.0000
               WELLS =           0.0000                 WELLS =           0.0000
       RIVER LEAKAGE =     1458095.5000         RIVER LEAKAGE =           0.0000
            RECHARGE =       86046.3047              RECHARGE =         343.4863

            TOTAL IN =     2601964.7500              TOTAL IN =        2480.2715

          OUT:                                     OUT:
          ----                                     ----
             STORAGE =     1588211.0000               STORAGE =         471.2070
       CONSTANT HEAD =           0.0000         CONSTANT HEAD =           0.0000
               WELLS =       39053.6211                 WELLS =         223.5936
       RIVER LEAKAGE =      974803.3750         RIVER LEAKAGE =        1785.0503
            RECHARGE =           0.0000              RECHARGE =           0.0000

           TOTAL OUT =     2602068.0000             TOTAL OUT =        2479.8508

            IN - OUT =        -103.2500              IN - OUT =           0.4207

 PERCENT DISCREPANCY =          -0.00     PERCENT DISCREPANCY =           0.02






         TIME SUMMARY AT END OF TIME STEP   85 IN STRESS PERIOD    3
                    SECONDS     MINUTES      HOURS       DAYS        YEARS
                    -----------------------------------------------------------
   TIME STEP LENGTH  86400.      1440.0      24.000      1.0000     2.73785E-03
 STRESS PERIOD TIME 7.34400E+06 1.22400E+05  2040.0      85.000     0.23272    
         TOTAL TIME 1.60704E+07 2.67840E+05  4464.0      186.00     0.50924    
1

 SOLVING FOR HEAD 

    ------------------------------------------------
       NWT REQUIRED            3 OUTER ITERATIONS 
       AND A TOTAL OF          3 INNER ITERATIONS.
    ------------------------------------------------

 OUTPUT CONTROL FOR STRESS PERIOD    3   TIME STEP   86
    SAVE HEAD FOR ALL LAYERS
    SAVE DRAWDOWN FOR ALL LAYERS
    SAVE BUDGET
    PRINT HEAD FOR ALL LAYERS
    PRINT BUDGET
1
              HEAD IN LAYER   1 AT END OF TIME STEP  86 IN STRESS PERIOD    3
  ---------------------------------------------------------------------------

            1           2           3           4           5           6           7           8           9          10
           11          12          13          14          15          16          17          18          19          20
 ........................................................................................................................
   1    0.000       0.000       0.000       0.000       0.000       7.361       7.357       7.382       7.395       7.410    
        7.444       7.522       7.557       7.363       7.535       7.475       7.401       7.379       0.000       0.000    
   2    0.000       0.000       0.000       0.000       7.440       7.429       7.388       7.454       7.466       7.475    
        7.500       7.560       7.587       7.362       7.529       7.447       7.390       7.377       0.000       0.000    
   3    0.000       0.000       0.000       7.534       7.525       7.496       7.482       7.509       7.528       7.532    
        7.545       7.584       7.632       7.360       7.514       7.375       7.376       7.377       0.000       0.000    
   4    0.000       0.000       7.643       7.583       7.535       7.361       7.363       7.362       7.360       7.361    
        7.362       7.370       7.568       7.358       7.512       7.430       7.391       7.388       0.000       0.000    
   5    0.000       0.000       7.461       7.386       7.358       7.367       7.543       7.564       7.558       7.560    
        7.544       7.362       7.359       7.365       7.501       7.441       7.403       7.403       7.417       0.000    
   6    0.000       7.357       7.357       7.359       7.406       7.553       7.570       7.533       7.510       7.512    
        7.531       7.516       7.522       7.509       7.484       7.426       7.404       7.407       7.419       0.000    
   7    0.000       7.555       7.550       7.547       7.550       7.537       7.493       7.456       7.437       7.430    
        7.439       7.460       7.473       7.464       7.432       7.403       7.393       7.397       0.000       0.000    
   8    0.000       7.536       7.517       7.510       7.497       7.471       7.443       7.422       7.405       7.386    
        7.369       7.394       7.410       7.411       7.397       7.382       7.374       7.380       0.000       0.000    
   9    0.000       0.000       7.460       7.458       7.452       7.441       7.428       7.415       7.395       7.362    
        7.288       7.357       7.382       7.387       7.378       7.359       7.336       7.359       7.377       7.389    
  10    0.000       0.000       7.441       7.441       7.439       7.435       7.428       7.416       7.397       7.370    
        7.340       7.360       7.376       7.379       7.367       7.331       7.245       7.333       7.371       7.387    

 HEAD WILL BE SAVED ON UNIT   51 AT END OF TIME STEP   86, STRESS PERIOD    3

 DRAWDOWN WILL BE SAVED ON UNIT   52 AT END OF TIME STEP   86, STRESS PERIOD    3
1
  VOLUMETRIC BUDGET FOR ENTIRE MODEL AT END OF TIME STEP   86, STRESS PERIOD   3
  ------------------------------------------------------------------------------

     CUMULATIVE VOLUMES      L**3       RATES FOR THIS TIME STEP      L**3/T
     ------------------                 ------------------------

           IN:                                      IN:
           ---                                      ---
             STORAGE =     1059937.0000               STORAGE =        2114.1724
       CONSTANT HEAD =           0.0000         CONSTANT HEAD =           0.0000
               WELLS =           0.0000                 WELLS =           0.0000
       RIVER LEAKAGE =     1458095.5000         RIVER LEAKAGE =           0.0000
            RECHARGE =       86389.7891              RECHARGE =         343.4863

            TOTAL IN =     2604422.2500              TOTAL IN =        2457.6587

          OUT:                                     OUT:
          ----                                     ----
             STORAGE =     1588676.6250               STORAGE =         465.6287
       CONSTANT HEAD =           0.0000         CONSTANT HEAD =           0.0000
               WELLS =       39277.2148                 WELLS =         223.5936
       RIVER LEAKAGE =      976571.3750         RIVER LEAKAGE =        1768.0201
            RECHARGE =           0.0000              RECHARGE =           0.0000

           TOTAL OUT =     2604525.2500             TOTAL OUT =        2457.2424

            IN - OUT =        -103.0000              IN - OUT =           0.4163

 PERCENT DISCREPANCY =          -0.00     PERCENT DISCREPANCY =           0.02






         TIME SUMMARY AT END OF TIME STEP   86 IN STRESS PERIOD    3
                    SECONDS     MINUTES      HOURS       DAYS        YEARS
                    -----------------------------------------------------------
   TIME STEP LENGTH  86400.      1440.0      24.000      1.0000     2.73785E-03
 STRESS PERIOD TIME 7.43040E+06 1.23840E+05  2064.0      86.000     0.23546    
         TOTAL TIME 1.61568E+07 2.69280E+05  4488.0      187.00     0.51198    
1

 SOLVING FOR HEAD 

    ------------------------------------------------
       NWT REQUIRED            3 OUTER ITERATIONS 
       AND A TOTAL OF          3 INNER ITERATIONS.
    ------------------------------------------------

 OUTPUT CONTROL FOR STRESS PERIOD    3   TIME STEP   87
    SAVE HEAD FOR ALL LAYERS
    SAVE DRAWDOWN FOR ALL LAYERS
    SAVE BUDGET
    PRINT HEAD FOR ALL LAYERS
    PRINT BUDGET
1
              HEAD IN LAYER   1 AT END OF TIME STEP  87 IN STRESS PERIOD    3
  ---------------------------------------------------------------------------

            1           2           3           4           5           6           7           8           9          10
           11          12          13          14          15          16          17          18          19          20
 ........................................................................................................................
   1    0.000       0.000       0.000       0.000       0.000       7.361       7.357       7.382       7.396       7.411    
        7.445       7.522       7.555       7.363       7.533       7.475       7.401       7.379       0.000       0.000    
   2    0.000       0.000       0.000       0.000       7.440       7.429       7.388       7.454       7.466       7.475    
        7.500       7.560       7.586       7.362       7.528       7.447       7.390       7.377       0.000       0.000    
   3    0.000       0.000       0.000       7.534       7.524       7.495       7.481       7.507       7.527       7.531    
        7.544       7.583       7.630       7.360       7.513       7.375       7.376       7.377       0.000       0.000    
   4    0.000       0.000       7.642       7.582       7.533       7.361       7.363       7.362       7.360       7.361    
        7.361       7.370       7.565       7.358       7.510       7.430       7.392       7.388       0.000       0.000    
   5    0.000       0.000       7.459       7.385       7.358       7.367       7.541       7.563       7.557       7.559    
        7.542       7.362       7.359       7.365       7.500       7.442       7.404       7.403       7.417       0.000    
   6    0.000       7.357       7.357       7.359       7.406       7.551       7.570       7.533       7.510       7.512    
        7.530       7.515       7.521       7.508       7.484       7.427       7.404       7.407       7.419       0.000    
   7    0.000       7.553       7.549       7.546       7.549       7.537       7.493       7.457       7.437       7.430    
        7.439       7.460       7.473       7.464       7.432       7.403       7.393       7.397       0.000       0.000    
   8    0.000       7.536       7.517       7.510       7.497       7.471       7.443       7.422       7.405       7.386    
        7.369       7.394       7.410       7.411       7.397       7.382       7.374       7.380       0.000       0.000    
   9    0.000       0.000       7.461       7.459       7.453       7.441       7.429       7.415       7.396       7.362    
        7.288       7.357       7.382       7.387       7.378       7.359       7.336       7.359       7.377       7.389    
  10    0.000       0.000       7.441       7.441       7.439       7.435       7.428       7.416       7.397       7.370    
        7.340       7.360       7.376       7.380       7.367       7.331       7.245       7.333       7.371       7.387    

 HEAD WILL BE SAVED ON UNIT   51 AT END OF TIME STEP   87, STRESS PERIOD    3

 DRAWDOWN WILL BE SAVED ON UNIT   52 AT END OF TIME STEP   87, STRESS PERIOD    3
1
  VOLUMETRIC BUDGET FOR ENTIRE MODEL AT END OF TIME STEP   87, STRESS PERIOD   3
  ------------------------------------------------------------------------------

     CUMULATIVE VOLUMES      L**3       RATES FOR THIS TIME STEP      L**3/T
     ------------------                 ------------------------

           IN:                                      IN:
           ---                                      ---
             STORAGE =     1062029.0000               STORAGE =        2092.0068
       CONSTANT HEAD =           0.0000         CONSTANT HEAD =           0.0000
               WELLS =           0.0000                 WELLS =           0.0000
       RIVER LEAKAGE =     1458095.5000         RIVER LEAKAGE =           0.0000
            RECHARGE =       86733.2734              RECHARGE =         343.4863

            TOTAL IN =     2606857.7500              TOTAL IN =        2435.4932

          OUT:                                     OUT:
          ----                                     ----
             STORAGE =     1589136.8750               STORAGE =         460.2022
       CONSTANT HEAD =           0.0000         CONSTANT HEAD =           0.0000
               WELLS =       39500.8086                 WELLS =         223.5936
       RIVER LEAKAGE =      978322.6875         RIVER LEAKAGE =        1751.2855
            RECHARGE =           0.0000              RECHARGE =           0.0000

           TOTAL OUT =     2606960.2500             TOTAL OUT =        2435.0813

            IN - OUT =        -102.5000              IN - OUT =           0.4119

 PERCENT DISCREPANCY =          -0.00     PERCENT DISCREPANCY =           0.02






         TIME SUMMARY AT END OF TIME STEP   87 IN STRESS PERIOD    3
                    SECONDS     MINUTES      HOURS       DAYS        YEARS
                    -----------------------------------------------------------
   TIME STEP LENGTH  86400.      1440.0      24.000      1.0000     2.73785E-03
 STRESS PERIOD TIME 7.51680E+06 1.25280E+05  2088.0      87.000     0.23819    
         TOTAL TIME 1.62432E+07 2.70720E+05  4512.0      188.00     0.51472    
1

 SOLVING FOR HEAD 

    ------------------------------------------------
       NWT REQUIRED            3 OUTER ITERATIONS 
       AND A TOTAL OF          3 INNER ITERATIONS.
    ------------------------------------------------

 OUTPUT CONTROL FOR STRESS PERIOD    3   TIME STEP   88
    SAVE HEAD FOR ALL LAYERS
    SAVE DRAWDOWN FOR ALL LAYERS
    SAVE BUDGET
    PRINT HEAD FOR ALL LAYERS
    PRINT BUDGET
1
              HEAD IN LAYER   1 AT END OF TIME STEP  88 IN STRESS PERIOD    3
  ---------------------------------------------------------------------------

            1           2           3           4           5           6           7           8           9          10
           11          12          13          14          15          16          17          18          19          20
 ........................................................................................................................
   1    0.000       0.000       0.000       0.000       0.000       7.362       7.357       7.382       7.396       7.411    
        7.445       7.522       7.553       7.363       7.531       7.474       7.401       7.379       0.000       0.000    
   2    0.000       0.000       0.000       0.000       7.441       7.429       7.387       7.454       7.466       7.475    
        7.500       7.560       7.584       7.362       7.526       7.447       7.391       7.377       0.000       0.000    
   3    0.000       0.000       0.000       7.535       7.524       7.493       7.479       7.506       7.525       7.529    
        7.543       7.581       7.628       7.360       7.512       7.375       7.376       7.377       0.000       0.000    
   4    0.000       0.000       7.641       7.580       7.531       7.361       7.363       7.362       7.360       7.361    
        7.361       7.370       7.562       7.358       7.509       7.430       7.392       7.388       0.000       0.000    
   5    0.000       0.000       7.457       7.385       7.358       7.366       7.539       7.561       7.556       7.557    
        7.540       7.362       7.359       7.365       7.499       7.442       7.404       7.403       7.417       0.000    
   6    0.000       7.357       7.357       7.359       7.405       7.549       7.569       7.533       7.510       7.512    
        7.529       7.514       7.520       7.507       7.484       7.427       7.404       7.407       7.419       0.000    
   7    0.000       7.552       7.547       7.544       7.548       7.536       7.493       7.457       7.437       7.431    
        7.439       7.460       7.473       7.463       7.433       7.403       7.393       7.397       0.000       0.000    
   8    0.000       7.536       7.517       7.510       7.497       7.472       7.443       7.422       7.405       7.386    
        7.369       7.394       7.410       7.411       7.397       7.382       7.374       7.380       0.000       0.000    
   9    0.000       0.000       7.461       7.459       7.453       7.441       7.429       7.415       7.396       7.362    
        7.288       7.357       7.382       7.387       7.378       7.359       7.336       7.359       7.377       7.389    
  10    0.000       0.000       7.442       7.441       7.439       7.435       7.428       7.416       7.397       7.370    
        7.340       7.360       7.376       7.380       7.367       7.331       7.245       7.333       7.371       7.387    

 HEAD WILL BE SAVED ON UNIT   51 AT END OF TIME STEP   88, STRESS PERIOD    3

 DRAWDOWN WILL BE SAVED ON UNIT   52 AT END OF TIME STEP   88, STRESS PERIOD    3
1
  VOLUMETRIC BUDGET FOR ENTIRE MODEL AT END OF TIME STEP   88, STRESS PERIOD   3
  ------------------------------------------------------------------------------

     CUMULATIVE VOLUMES      L**3       RATES FOR THIS TIME STEP      L**3/T
     ------------------                 ------------------------

           IN:                                      IN:
           ---                                      ---
             STORAGE =     1064099.1250               STORAGE =        2070.1746
       CONSTANT HEAD =           0.0000         CONSTANT HEAD =           0.0000
               WELLS =           0.0000                 WELLS =           0.0000
       RIVER LEAKAGE =     1458095.5000         RIVER LEAKAGE =           0.0000
            RECHARGE =       87076.7578              RECHARGE =         343.4863

            TOTAL IN =     2609271.2500              TOTAL IN =        2413.6609

          OUT:                                     OUT:
          ----                                     ----
             STORAGE =     1589591.7500               STORAGE =         454.8174
       CONSTANT HEAD =           0.0000         CONSTANT HEAD =           0.0000
               WELLS =       39724.4023                 WELLS =         223.5936
       RIVER LEAKAGE =      980057.5000         RIVER LEAKAGE =        1734.8423
            RECHARGE =           0.0000              RECHARGE =           0.0000

           TOTAL OUT =     2609373.5000             TOTAL OUT =        2413.2534

            IN - OUT =        -102.2500              IN - OUT =           0.4075

 PERCENT DISCREPANCY =          -0.00     PERCENT DISCREPANCY =           0.02






         TIME SUMMARY AT END OF TIME STEP   88 IN STRESS PERIOD    3
                    SECONDS     MINUTES      HOURS       DAYS        YEARS
                    -----------------------------------------------------------
   TIME STEP LENGTH  86400.      1440.0      24.000      1.0000     2.73785E-03
 STRESS PERIOD TIME 7.60320E+06 1.26720E+05  2112.0      88.000     0.24093    
         TOTAL TIME 1.63296E+07 2.72160E+05  4536.0      189.00     0.51745    
1

 SOLVING FOR HEAD 

    ------------------------------------------------
       NWT REQUIRED            3 OUTER ITERATIONS 
       AND A TOTAL OF          3 INNER ITERATIONS.
    ------------------------------------------------

 OUTPUT CONTROL FOR STRESS PERIOD    3   TIME STEP   89
    SAVE HEAD FOR ALL LAYERS
    SAVE DRAWDOWN FOR ALL LAYERS
    SAVE BUDGET
    PRINT HEAD FOR ALL LAYERS
    PRINT BUDGET
1
              HEAD IN LAYER   1 AT END OF TIME STEP  89 IN STRESS PERIOD    3
  ---------------------------------------------------------------------------

            1           2           3           4           5           6           7           8           9          10
           11          12          13          14          15          16          17          18          19          20
 ........................................................................................................................
   1    0.000       0.000       0.000       0.000       0.000       7.362       7.358       7.383       7.397       7.412    
        7.446       7.522       7.552       7.363       7.530       7.474       7.401       7.380       0.000       0.000    
   2    0.000       0.000       0.000       0.000       7.441       7.429       7.387       7.454       7.466       7.475    
        7.500       7.560       7.582       7.362       7.525       7.447       7.391       7.377       0.000       0.000    
   3    0.000       0.000       0.000       7.535       7.523       7.492       7.478       7.504       7.524       7.528    
        7.541       7.580       7.626       7.360       7.510       7.375       7.376       7.377       0.000       0.000    
   4    0.000       0.000       7.639       7.579       7.530       7.361       7.363       7.362       7.360       7.360    
        7.361       7.370       7.560       7.358       7.508       7.430       7.392       7.388       0.000       0.000    
   5    0.000       0.000       7.456       7.384       7.358       7.366       7.537       7.560       7.554       7.556    
        7.538       7.362       7.359       7.365       7.498       7.442       7.404       7.404       7.417       0.000    
   6    0.000       7.357       7.357       7.359       7.404       7.548       7.568       7.533       7.510       7.512    
        7.529       7.513       7.518       7.506       7.483       7.427       7.404       7.407       7.419       0.000    
   7    0.000       7.551       7.546       7.543       7.546       7.536       7.494       7.458       7.438       7.431    
        7.440       7.460       7.473       7.463       7.433       7.404       7.394       7.397       0.000       0.000    
   8    0.000       7.536       7.517       7.509       7.498       7.472       7.444       7.423       7.405       7.386    
        7.370       7.395       7.411       7.411       7.398       7.383       7.374       7.380       0.000       0.000    
   9    0.000       0.000       7.461       7.459       7.453       7.441       7.429       7.415       7.396       7.362    
        7.288       7.357       7.382       7.387       7.378       7.359       7.336       7.359       7.377       7.389    
  10    0.000       0.000       7.442       7.442       7.440       7.435       7.428       7.416       7.397       7.370    
        7.340       7.360       7.376       7.380       7.367       7.331       7.245       7.332       7.371       7.387    

 HEAD WILL BE SAVED ON UNIT   51 AT END OF TIME STEP   89, STRESS PERIOD    3

 DRAWDOWN WILL BE SAVED ON UNIT   52 AT END OF TIME STEP   89, STRESS PERIOD    3
1
  VOLUMETRIC BUDGET FOR ENTIRE MODEL AT END OF TIME STEP   89, STRESS PERIOD   3
  ------------------------------------------------------------------------------

     CUMULATIVE VOLUMES      L**3       RATES FOR THIS TIME STEP      L**3/T
     ------------------                 ------------------------

           IN:                                      IN:
           ---                                      ---
             STORAGE =     1066147.8750               STORAGE =        2048.7253
       CONSTANT HEAD =           0.0000         CONSTANT HEAD =           0.0000
               WELLS =           0.0000                 WELLS =           0.0000
       RIVER LEAKAGE =     1458095.5000         RIVER LEAKAGE =           0.0000
            RECHARGE =       87420.2422              RECHARGE =         343.4863

            TOTAL IN =     2611663.7500              TOTAL IN =        2392.2117

          OUT:                                     OUT:
          ----                                     ----
             STORAGE =     1590041.2500               STORAGE =         449.4974
       CONSTANT HEAD =           0.0000         CONSTANT HEAD =           0.0000
               WELLS =       39947.9961                 WELLS =         223.5936
       RIVER LEAKAGE =      981776.1875         RIVER LEAKAGE =        1718.7172
            RECHARGE =           0.0000              RECHARGE =           0.0000

           TOTAL OUT =     2611765.5000             TOTAL OUT =        2391.8081

            IN - OUT =        -101.7500              IN - OUT =           0.4036

 PERCENT DISCREPANCY =          -0.00     PERCENT DISCREPANCY =           0.02






         TIME SUMMARY AT END OF TIME STEP   89 IN STRESS PERIOD    3
                    SECONDS     MINUTES      HOURS       DAYS        YEARS
                    -----------------------------------------------------------
   TIME STEP LENGTH  86400.      1440.0      24.000      1.0000     2.73785E-03
 STRESS PERIOD TIME 7.68960E+06 1.28160E+05  2136.0      89.000     0.24367    
         TOTAL TIME 1.64160E+07 2.73600E+05  4560.0      190.00     0.52019    
1

 SOLVING FOR HEAD 

    ------------------------------------------------
       NWT REQUIRED            3 OUTER ITERATIONS 
       AND A TOTAL OF          3 INNER ITERATIONS.
    ------------------------------------------------

 OUTPUT CONTROL FOR STRESS PERIOD    3   TIME STEP   90
    SAVE HEAD FOR ALL LAYERS
    SAVE DRAWDOWN FOR ALL LAYERS
    SAVE BUDGET
    PRINT HEAD FOR ALL LAYERS
    PRINT BUDGET
1
              HEAD IN LAYER   1 AT END OF TIME STEP  90 IN STRESS PERIOD    3
  ---------------------------------------------------------------------------

            1           2           3           4           5           6           7           8           9          10
           11          12          13          14          15          16          17          18          19          20
 ........................................................................................................................
   1    0.000       0.000       0.000       0.000       0.000       7.363       7.358       7.383       7.397       7.413    
        7.446       7.522       7.550       7.363       7.528       7.474       7.402       7.380       0.000       0.000    
   2    0.000       0.000       0.000       0.000       7.442       7.429       7.387       7.453       7.466       7.475    
        7.500       7.559       7.581       7.361       7.523       7.447       7.391       7.377       0.000       0.000    
   3    0.000       0.000       0.000       7.535       7.523       7.491       7.476       7.502       7.523       7.527    
        7.540       7.579       7.624       7.360       7.509       7.374       7.377       7.377       0.000       0.000    
   4    0.000       0.000       7.638       7.578       7.528       7.361       7.363       7.362       7.360       7.360    
        7.361       7.370       7.557       7.358       7.507       7.430       7.392       7.388       0.000       0.000    
   5    0.000       0.000       7.454       7.384       7.358       7.366       7.535       7.558       7.553       7.554    
        7.537       7.362       7.359       7.365       7.497       7.442       7.404       7.404       7.417       0.000    
   6    0.000       7.357       7.357       7.359       7.404       7.546       7.567       7.533       7.510       7.512    
        7.528       7.512       7.517       7.505       7.483       7.427       7.404       7.407       7.419       0.000    
   7    0.000       7.550       7.545       7.542       7.545       7.536       7.494       7.458       7.438       7.431    
        7.440       7.460       7.473       7.463       7.433       7.404       7.394       7.397       0.000       0.000    
   8    0.000       7.536       7.517       7.509       7.498       7.472       7.444       7.423       7.405       7.387    
        7.370       7.395       7.411       7.411       7.398       7.383       7.374       7.380       0.000       0.000    
   9    0.000       0.000       7.461       7.459       7.453       7.442       7.429       7.415       7.396       7.362    
        7.288       7.357       7.382       7.387       7.378       7.359       7.336       7.359       7.377       7.389    
  10    0.000       0.000       7.442       7.442       7.440       7.435       7.428       7.416       7.397       7.370    
        7.340       7.360       7.376       7.380       7.367       7.331       7.245       7.332       7.371       7.387    

 HEAD WILL BE SAVED ON UNIT   51 AT END OF TIME STEP   90, STRESS PERIOD    3

 DRAWDOWN WILL BE SAVED ON UNIT   52 AT END OF TIME STEP   90, STRESS PERIOD    3
1
  VOLUMETRIC BUDGET FOR ENTIRE MODEL AT END OF TIME STEP   90, STRESS PERIOD   3
  ------------------------------------------------------------------------------

     CUMULATIVE VOLUMES      L**3       RATES FOR THIS TIME STEP      L**3/T
     ------------------                 ------------------------

           IN:                                      IN:
           ---                                      ---
             STORAGE =     1068175.6250               STORAGE =        2027.7321
       CONSTANT HEAD =           0.0000         CONSTANT HEAD =           0.0000
               WELLS =           0.0000                 WELLS =           0.0000
       RIVER LEAKAGE =     1458095.5000         RIVER LEAKAGE =           0.0000
            RECHARGE =       87763.7266              RECHARGE =         343.4863

            TOTAL IN =     2614034.7500              TOTAL IN =        2371.2183

          OUT:                                     OUT:
          ----                                     ----
             STORAGE =     1590485.6250               STORAGE =         444.3568
       CONSTANT HEAD =           0.0000         CONSTANT HEAD =           0.0000
               WELLS =       40171.5898                 WELLS =         223.5936
       RIVER LEAKAGE =      983479.0625         RIVER LEAKAGE =        1702.8684
            RECHARGE =           0.0000              RECHARGE =           0.0000

           TOTAL OUT =     2614136.2500             TOTAL OUT =        2370.8188

            IN - OUT =        -101.5000              IN - OUT =           0.3994

 PERCENT DISCREPANCY =          -0.00     PERCENT DISCREPANCY =           0.02






         TIME SUMMARY AT END OF TIME STEP   90 IN STRESS PERIOD    3
                    SECONDS     MINUTES      HOURS       DAYS        YEARS
                    -----------------------------------------------------------
   TIME STEP LENGTH  86400.      1440.0      24.000      1.0000     2.73785E-03
 STRESS PERIOD TIME 7.77600E+06 1.29600E+05  2160.0      90.000     0.24641    
         TOTAL TIME 1.65024E+07 2.75040E+05  4584.0      191.00     0.52293    
1

 SOLVING FOR HEAD 

    ------------------------------------------------
       NWT REQUIRED            3 OUTER ITERATIONS 
       AND A TOTAL OF          3 INNER ITERATIONS.
    ------------------------------------------------

 OUTPUT CONTROL FOR STRESS PERIOD    3   TIME STEP   91
    SAVE HEAD FOR ALL LAYERS
    SAVE DRAWDOWN FOR ALL LAYERS
    SAVE BUDGET
    PRINT HEAD FOR ALL LAYERS
    PRINT BUDGET
1
              HEAD IN LAYER   1 AT END OF TIME STEP  91 IN STRESS PERIOD    3
  ---------------------------------------------------------------------------

            1           2           3           4           5           6           7           8           9          10
           11          12          13          14          15          16          17          18          19          20
 ........................................................................................................................
   1    0.000       0.000       0.000       0.000       0.000       7.363       7.358       7.384       7.398       7.413    
        7.447       7.522       7.549       7.363       7.526       7.474       7.402       7.380       0.000       0.000    
   2    0.000       0.000       0.000       0.000       7.442       7.429       7.386       7.453       7.466       7.475    
        7.500       7.559       7.579       7.361       7.522       7.447       7.391       7.377       0.000       0.000    
   3    0.000       0.000       0.000       7.535       7.522       7.490       7.475       7.501       7.522       7.526    
        7.539       7.578       7.622       7.360       7.508       7.374       7.377       7.377       0.000       0.000    
   4    0.000       0.000       7.637       7.576       7.526       7.361       7.363       7.362       7.360       7.360    
        7.361       7.370       7.554       7.358       7.506       7.430       7.392       7.389       0.000       0.000    
   5    0.000       0.000       7.452       7.384       7.358       7.366       7.533       7.556       7.552       7.553    
        7.535       7.362       7.358       7.364       7.497       7.442       7.404       7.404       7.417       0.000    
   6    0.000       7.357       7.357       7.359       7.403       7.544       7.566       7.533       7.510       7.512    
        7.528       7.511       7.516       7.504       7.483       7.427       7.404       7.407       7.419       0.000    
   7    0.000       7.549       7.544       7.541       7.544       7.535       7.494       7.458       7.438       7.432    
        7.440       7.460       7.472       7.463       7.433       7.404       7.394       7.397       0.000       0.000    
   8    0.000       7.536       7.517       7.509       7.498       7.472       7.444       7.423       7.406       7.387    
        7.370       7.395       7.411       7.411       7.398       7.383       7.374       7.380       0.000       0.000    
   9    0.000       0.000       7.462       7.459       7.453       7.442       7.429       7.415       7.396       7.362    
        7.288       7.357       7.382       7.387       7.378       7.359       7.336       7.359       7.377       7.389    
  10    0.000       0.000       7.442       7.442       7.440       7.435       7.428       7.416       7.397       7.370    
        7.340       7.360       7.376       7.380       7.367       7.331       7.245       7.332       7.371       7.387    

 HEAD WILL BE SAVED ON UNIT   51 AT END OF TIME STEP   91, STRESS PERIOD    3

 DRAWDOWN WILL BE SAVED ON UNIT   52 AT END OF TIME STEP   91, STRESS PERIOD    3
1
  VOLUMETRIC BUDGET FOR ENTIRE MODEL AT END OF TIME STEP   91, STRESS PERIOD   3
  ------------------------------------------------------------------------------

     CUMULATIVE VOLUMES      L**3       RATES FOR THIS TIME STEP      L**3/T
     ------------------                 ------------------------

           IN:                                      IN:
           ---                                      ---
             STORAGE =     1070182.8750               STORAGE =        2007.2509
       CONSTANT HEAD =           0.0000         CONSTANT HEAD =           0.0000
               WELLS =           0.0000                 WELLS =           0.0000
       RIVER LEAKAGE =     1458095.5000         RIVER LEAKAGE =           0.0000
            RECHARGE =       88107.2109              RECHARGE =         343.4863

            TOTAL IN =     2616385.7500              TOTAL IN =        2350.7373

          OUT:                                     OUT:
          ----                                     ----
             STORAGE =     1590925.1250               STORAGE =         439.4609
       CONSTANT HEAD =           0.0000         CONSTANT HEAD =           0.0000
               WELLS =       40395.1836                 WELLS =         223.5936
       RIVER LEAKAGE =      985166.3750         RIVER LEAKAGE =        1687.2870
            RECHARGE =           0.0000              RECHARGE =           0.0000

           TOTAL OUT =     2616486.5000             TOTAL OUT =        2350.3413

            IN - OUT =        -100.7500              IN - OUT =           0.3960

 PERCENT DISCREPANCY =          -0.00     PERCENT DISCREPANCY =           0.02






         TIME SUMMARY AT END OF TIME STEP   91 IN STRESS PERIOD    3
                    SECONDS     MINUTES      HOURS       DAYS        YEARS
                    -----------------------------------------------------------
   TIME STEP LENGTH  86400.      1440.0      24.000      1.0000     2.73785E-03
 STRESS PERIOD TIME 7.86240E+06 1.31040E+05  2184.0      91.000     0.24914    
         TOTAL TIME 1.65888E+07 2.76480E+05  4608.0      192.00     0.52567    
1

 SOLVING FOR HEAD 

    ------------------------------------------------
       NWT REQUIRED            3 OUTER ITERATIONS 
       AND A TOTAL OF          3 INNER ITERATIONS.
    ------------------------------------------------

 OUTPUT CONTROL FOR STRESS PERIOD    3   TIME STEP   92
    SAVE HEAD FOR ALL LAYERS
    SAVE DRAWDOWN FOR ALL LAYERS
    SAVE BUDGET
    PRINT HEAD FOR ALL LAYERS
    PRINT BUDGET
1
              HEAD IN LAYER   1 AT END OF TIME STEP  92 IN STRESS PERIOD    3
  ---------------------------------------------------------------------------

            1           2           3           4           5           6           7           8           9          10
           11          12          13          14          15          16          17          18          19          20
 ........................................................................................................................
   1    0.000       0.000       0.000       0.000       0.000       7.364       7.359       7.384       7.398       7.414    
        7.448       7.522       7.547       7.363       7.525       7.474       7.402       7.380       0.000       0.000    
   2    0.000       0.000       0.000       0.000       7.443       7.429       7.386       7.453       7.466       7.475    
        7.500       7.559       7.578       7.361       7.520       7.447       7.391       7.377       0.000       0.000    
   3    0.000       0.000       0.000       7.536       7.522       7.489       7.473       7.500       7.520       7.525    
        7.538       7.576       7.620       7.360       7.507       7.374       7.377       7.377       0.000       0.000    
   4    0.000       0.000       7.635       7.575       7.525       7.361       7.362       7.362       7.360       7.360    
        7.361       7.369       7.552       7.358       7.505       7.430       7.393       7.389       0.000       0.000    
   5    0.000       0.000       7.451       7.383       7.358       7.366       7.531       7.555       7.550       7.552    
        7.533       7.362       7.358       7.364       7.496       7.442       7.404       7.404       7.417       0.000    
   6    0.000       7.357       7.357       7.359       7.402       7.543       7.565       7.532       7.510       7.511    
        7.527       7.510       7.515       7.502       7.482       7.427       7.404       7.407       7.419       0.000    
   7    0.000       7.548       7.543       7.540       7.543       7.535       7.494       7.459       7.439       7.432    
        7.440       7.460       7.472       7.463       7.433       7.404       7.394       7.397       0.000       0.000    
   8    0.000       7.536       7.517       7.509       7.498       7.472       7.444       7.423       7.406       7.387    
        7.370       7.395       7.411       7.412       7.398       7.383       7.374       7.380       0.000       0.000    
   9    0.000       0.000       7.462       7.460       7.454       7.442       7.429       7.415       7.396       7.362    
        7.288       7.357       7.382       7.387       7.379       7.359       7.336       7.359       7.377       7.389    
  10    0.000       0.000       7.442       7.442       7.440       7.435       7.428       7.416       7.397       7.370    
        7.340       7.360       7.376       7.380       7.367       7.331       7.245       7.332       7.371       7.387    

 HEAD WILL BE SAVED ON UNIT   51 AT END OF TIME STEP   92, STRESS PERIOD    3

 DRAWDOWN WILL BE SAVED ON UNIT   52 AT END OF TIME STEP   92, STRESS PERIOD    3
1
  VOLUMETRIC BUDGET FOR ENTIRE MODEL AT END OF TIME STEP   92, STRESS PERIOD   3
  ------------------------------------------------------------------------------

     CUMULATIVE VOLUMES      L**3       RATES FOR THIS TIME STEP      L**3/T
     ------------------                 ------------------------

           IN:                                      IN:
           ---                                      ---
             STORAGE =     1072170.0000               STORAGE =        1987.1322
       CONSTANT HEAD =           0.0000         CONSTANT HEAD =           0.0000
               WELLS =           0.0000                 WELLS =           0.0000
       RIVER LEAKAGE =     1458095.5000         RIVER LEAKAGE =           0.0000
            RECHARGE =       88450.6953              RECHARGE =         343.4863

            TOTAL IN =     2618716.2500              TOTAL IN =        2330.6187

          OUT:                                     OUT:
          ----                                     ----
             STORAGE =     1591359.7500               STORAGE =         434.6460
       CONSTANT HEAD =           0.0000         CONSTANT HEAD =           0.0000
               WELLS =       40618.7773                 WELLS =         223.5936
       RIVER LEAKAGE =      986838.3750         RIVER LEAKAGE =        1671.9872
            RECHARGE =           0.0000              RECHARGE =           0.0000

           TOTAL OUT =     2618817.0000             TOTAL OUT =        2330.2268

            IN - OUT =        -100.7500              IN - OUT =           0.3918

 PERCENT DISCREPANCY =          -0.00     PERCENT DISCREPANCY =           0.02






         TIME SUMMARY AT END OF TIME STEP   92 IN STRESS PERIOD    3
                    SECONDS     MINUTES      HOURS       DAYS        YEARS
                    -----------------------------------------------------------
   TIME STEP LENGTH  86400.      1440.0      24.000      1.0000     2.73785E-03
 STRESS PERIOD TIME 7.94880E+06 1.32480E+05  2208.0      92.000     0.25188    
         TOTAL TIME 1.66752E+07 2.77920E+05  4632.0      193.00     0.52841    
1

 SOLVING FOR HEAD 

    ------------------------------------------------
       NWT REQUIRED            3 OUTER ITERATIONS 
       AND A TOTAL OF          3 INNER ITERATIONS.
    ------------------------------------------------

 OUTPUT CONTROL FOR STRESS PERIOD    3   TIME STEP   93
    SAVE HEAD FOR ALL LAYERS
    SAVE DRAWDOWN FOR ALL LAYERS
    SAVE BUDGET
    PRINT HEAD FOR ALL LAYERS
    PRINT BUDGET
1
              HEAD IN LAYER   1 AT END OF TIME STEP  93 IN STRESS PERIOD    3
  ---------------------------------------------------------------------------

            1           2           3           4           5           6           7           8           9          10
           11          12          13          14          15          16          17          18          19          20
 ........................................................................................................................
   1    0.000       0.000       0.000       0.000       0.000       7.364       7.359       7.384       7.399       7.414    
        7.448       7.522       7.545       7.362       7.523       7.473       7.402       7.380       0.000       0.000    
   2    0.000       0.000       0.000       0.000       7.443       7.429       7.385       7.452       7.466       7.475    
        7.501       7.559       7.576       7.361       7.519       7.447       7.392       7.378       0.000       0.000    
   3    0.000       0.000       0.000       7.536       7.521       7.487       7.472       7.498       7.519       7.524    
        7.537       7.575       7.618       7.360       7.505       7.374       7.377       7.377       0.000       0.000    
   4    0.000       0.000       7.634       7.574       7.523       7.360       7.362       7.362       7.360       7.360    
        7.361       7.369       7.550       7.358       7.504       7.430       7.393       7.389       0.000       0.000    
   5    0.000       0.000       7.449       7.383       7.358       7.366       7.530       7.553       7.549       7.550    
        7.531       7.362       7.358       7.364       7.495       7.442       7.405       7.404       7.417       0.000    
   6    0.000       7.357       7.357       7.359       7.402       7.541       7.565       7.532       7.510       7.511    
        7.527       7.509       7.514       7.501       7.482       7.428       7.404       7.407       7.419       0.000    
   7    0.000       7.546       7.541       7.538       7.542       7.534       7.494       7.459       7.439       7.432    
        7.441       7.460       7.472       7.463       7.433       7.404       7.394       7.397       0.000       0.000    
   8    0.000       7.536       7.516       7.509       7.498       7.473       7.445       7.424       7.406       7.387    
        7.370       7.395       7.411       7.412       7.398       7.383       7.374       7.380       0.000       0.000    
   9    0.000       0.000       7.462       7.460       7.454       7.442       7.429       7.415       7.396       7.362    
        7.288       7.357       7.382       7.388       7.379       7.359       7.336       7.359       7.377       7.389    
  10    0.000       0.000       7.442       7.442       7.440       7.435       7.428       7.416       7.397       7.370    
        7.340       7.360       7.376       7.380       7.367       7.331       7.245       7.332       7.371       7.387    

 HEAD WILL BE SAVED ON UNIT   51 AT END OF TIME STEP   93, STRESS PERIOD    3

 DRAWDOWN WILL BE SAVED ON UNIT   52 AT END OF TIME STEP   93, STRESS PERIOD    3
1
  VOLUMETRIC BUDGET FOR ENTIRE MODEL AT END OF TIME STEP   93, STRESS PERIOD   3
  ------------------------------------------------------------------------------

     CUMULATIVE VOLUMES      L**3       RATES FOR THIS TIME STEP      L**3/T
     ------------------                 ------------------------

           IN:                                      IN:
           ---                                      ---
             STORAGE =     1074137.5000               STORAGE =        1967.4448
       CONSTANT HEAD =           0.0000         CONSTANT HEAD =           0.0000
               WELLS =           0.0000                 WELLS =           0.0000
       RIVER LEAKAGE =     1458095.5000         RIVER LEAKAGE =           0.0000
            RECHARGE =       88794.1797              RECHARGE =         343.4863

            TOTAL IN =     2621027.2500              TOTAL IN =        2310.9312

          OUT:                                     OUT:
          ----                                     ----
             STORAGE =     1591789.7500               STORAGE =         429.9992
       CONSTANT HEAD =           0.0000         CONSTANT HEAD =           0.0000
               WELLS =       40842.3711                 WELLS =         223.5936
       RIVER LEAKAGE =      988495.3125         RIVER LEAKAGE =        1656.9504
            RECHARGE =           0.0000              RECHARGE =           0.0000

           TOTAL OUT =     2621127.5000             TOTAL OUT =        2310.5432

            IN - OUT =        -100.2500              IN - OUT =           0.3879

 PERCENT DISCREPANCY =          -0.00     PERCENT DISCREPANCY =           0.02






         TIME SUMMARY AT END OF TIME STEP   93 IN STRESS PERIOD    3
                    SECONDS     MINUTES      HOURS       DAYS        YEARS
                    -----------------------------------------------------------
   TIME STEP LENGTH  86400.      1440.0      24.000      1.0000     2.73785E-03
 STRESS PERIOD TIME 8.03520E+06 1.33920E+05  2232.0      93.000     0.25462    
         TOTAL TIME 1.67616E+07 2.79360E+05  4656.0      194.00     0.53114    
1

 SOLVING FOR HEAD 

    ------------------------------------------------
       NWT REQUIRED            3 OUTER ITERATIONS 
       AND A TOTAL OF          3 INNER ITERATIONS.
    ------------------------------------------------

 OUTPUT CONTROL FOR STRESS PERIOD    3   TIME STEP   94
    SAVE HEAD FOR ALL LAYERS
    SAVE DRAWDOWN FOR ALL LAYERS
    SAVE BUDGET
    PRINT HEAD FOR ALL LAYERS
    PRINT BUDGET
1
              HEAD IN LAYER   1 AT END OF TIME STEP  94 IN STRESS PERIOD    3
  ---------------------------------------------------------------------------

            1           2           3           4           5           6           7           8           9          10
           11          12          13          14          15          16          17          18          19          20
 ........................................................................................................................
   1    0.000       0.000       0.000       0.000       0.000       7.364       7.360       7.385       7.399       7.415    
        7.449       7.522       7.544       7.362       7.521       7.473       7.402       7.380       0.000       0.000    
   2    0.000       0.000       0.000       0.000       7.444       7.428       7.385       7.452       7.466       7.475    
        7.501       7.558       7.575       7.361       7.517       7.446       7.392       7.378       0.000       0.000    
   3    0.000       0.000       0.000       7.536       7.521       7.486       7.470       7.497       7.518       7.523    
        7.536       7.574       7.616       7.360       7.504       7.374       7.377       7.378       0.000       0.000    
   4    0.000       0.000       7.633       7.573       7.522       7.360       7.362       7.362       7.360       7.360    
        7.361       7.369       7.547       7.358       7.503       7.430       7.393       7.389       0.000       0.000    
   5    0.000       0.000       7.448       7.383       7.358       7.366       7.528       7.552       7.548       7.549    
        7.530       7.362       7.358       7.364       7.494       7.442       7.405       7.404       7.417       0.000    
   6    0.000       7.357       7.357       7.359       7.401       7.539       7.564       7.532       7.510       7.511    
        7.526       7.508       7.512       7.501       7.482       7.428       7.404       7.407       7.419       0.000    
   7    0.000       7.545       7.540       7.537       7.541       7.534       7.495       7.459       7.439       7.433    
        7.441       7.460       7.472       7.463       7.433       7.404       7.394       7.397       0.000       0.000    
   8    0.000       7.536       7.516       7.509       7.498       7.473       7.445       7.424       7.406       7.387    
        7.370       7.395       7.411       7.412       7.398       7.383       7.374       7.380       0.000       0.000    
   9    0.000       0.000       7.462       7.460       7.454       7.442       7.429       7.416       7.396       7.362    
        7.288       7.357       7.382       7.388       7.379       7.359       7.336       7.359       7.377       7.389    
  10    0.000       0.000       7.443       7.442       7.440       7.435       7.428       7.416       7.397       7.370    
        7.340       7.360       7.376       7.380       7.367       7.331       7.245       7.332       7.371       7.387    

 HEAD WILL BE SAVED ON UNIT   51 AT END OF TIME STEP   94, STRESS PERIOD    3

 DRAWDOWN WILL BE SAVED ON UNIT   52 AT END OF TIME STEP   94, STRESS PERIOD    3
1
  VOLUMETRIC BUDGET FOR ENTIRE MODEL AT END OF TIME STEP   94, STRESS PERIOD   3
  ------------------------------------------------------------------------------

     CUMULATIVE VOLUMES      L**3       RATES FOR THIS TIME STEP      L**3/T
     ------------------                 ------------------------

           IN:                                      IN:
           ---                                      ---
             STORAGE =     1076085.6250               STORAGE =        1948.0674
       CONSTANT HEAD =           0.0000         CONSTANT HEAD =           0.0000
               WELLS =           0.0000                 WELLS =           0.0000
       RIVER LEAKAGE =     1458095.5000         RIVER LEAKAGE =           0.0000
            RECHARGE =       89137.6641              RECHARGE =         343.4863

            TOTAL IN =     2623318.7500              TOTAL IN =        2291.5537

          OUT:                                     OUT:
          ----                                     ----
             STORAGE =     1592215.1250               STORAGE =         425.4168
       CONSTANT HEAD =           0.0000         CONSTANT HEAD =           0.0000
               WELLS =       41065.9648                 WELLS =         223.5936
       RIVER LEAKAGE =      990137.5000         RIVER LEAKAGE =        1642.1591
            RECHARGE =           0.0000              RECHARGE =           0.0000

           TOTAL OUT =     2623418.5000             TOTAL OUT =        2291.1694

            IN - OUT =         -99.7500              IN - OUT =           0.3843

 PERCENT DISCREPANCY =          -0.00     PERCENT DISCREPANCY =           0.02






         TIME SUMMARY AT END OF TIME STEP   94 IN STRESS PERIOD    3
                    SECONDS     MINUTES      HOURS       DAYS        YEARS
                    -----------------------------------------------------------
   TIME STEP LENGTH  86400.      1440.0      24.000      1.0000     2.73785E-03
 STRESS PERIOD TIME 8.12160E+06 1.35360E+05  2256.0      94.000     0.25736    
         TOTAL TIME 1.68480E+07 2.80800E+05  4680.0      195.00     0.53388    
1

 SOLVING FOR HEAD 

    ------------------------------------------------
       NWT REQUIRED            3 OUTER ITERATIONS 
       AND A TOTAL OF          3 INNER ITERATIONS.
    ------------------------------------------------

 OUTPUT CONTROL FOR STRESS PERIOD    3   TIME STEP   95
    SAVE HEAD FOR ALL LAYERS
    SAVE DRAWDOWN FOR ALL LAYERS
    SAVE BUDGET
    PRINT HEAD FOR ALL LAYERS
    PRINT BUDGET
1
              HEAD IN LAYER   1 AT END OF TIME STEP  95 IN STRESS PERIOD    3
  ---------------------------------------------------------------------------

            1           2           3           4           5           6           7           8           9          10
           11          12          13          14          15          16          17          18          19          20
 ........................................................................................................................
   1    0.000       0.000       0.000       0.000       0.000       7.365       7.360       7.385       7.400       7.415    
        7.449       7.522       7.542       7.362       7.520       7.473       7.403       7.381       0.000       0.000    
   2    0.000       0.000       0.000       0.000       7.444       7.428       7.384       7.452       7.466       7.475    
        7.501       7.558       7.573       7.361       7.516       7.446       7.392       7.378       0.000       0.000    
   3    0.000       0.000       0.000       7.536       7.520       7.485       7.469       7.495       7.516       7.521    
        7.535       7.573       7.613       7.360       7.503       7.374       7.378       7.378       0.000       0.000    
   4    0.000       0.000       7.631       7.571       7.520       7.360       7.362       7.362       7.360       7.360    
        7.361       7.369       7.545       7.358       7.502       7.430       7.393       7.389       0.000       0.000    
   5    0.000       0.000       7.446       7.382       7.358       7.366       7.526       7.550       7.547       7.547    
        7.528       7.362       7.358       7.364       7.493       7.442       7.405       7.404       7.417       0.000    
   6    0.000       7.357       7.357       7.359       7.401       7.538       7.563       7.532       7.510       7.511    
        7.525       7.507       7.511       7.500       7.481       7.428       7.405       7.407       7.419       0.000    
   7    0.000       7.544       7.539       7.536       7.540       7.533       7.495       7.460       7.440       7.433    
        7.441       7.460       7.472       7.463       7.434       7.404       7.394       7.397       0.000       0.000    
   8    0.000       7.536       7.516       7.509       7.497       7.473       7.445       7.424       7.406       7.387    
        7.371       7.396       7.412       7.412       7.398       7.383       7.374       7.380       0.000       0.000    
   9    0.000       0.000       7.463       7.460       7.454       7.443       7.430       7.416       7.396       7.362    
        7.288       7.357       7.382       7.388       7.379       7.359       7.336       7.359       7.377       7.389    
  10    0.000       0.000       7.443       7.442       7.440       7.435       7.428       7.416       7.397       7.370    
        7.340       7.360       7.376       7.380       7.367       7.331       7.245       7.332       7.371       7.387    

 HEAD WILL BE SAVED ON UNIT   51 AT END OF TIME STEP   95, STRESS PERIOD    3

 DRAWDOWN WILL BE SAVED ON UNIT   52 AT END OF TIME STEP   95, STRESS PERIOD    3
1
  VOLUMETRIC BUDGET FOR ENTIRE MODEL AT END OF TIME STEP   95, STRESS PERIOD   3
  ------------------------------------------------------------------------------

     CUMULATIVE VOLUMES      L**3       RATES FOR THIS TIME STEP      L**3/T
     ------------------                 ------------------------

           IN:                                      IN:
           ---                                      ---
             STORAGE =     1078014.6250               STORAGE =        1928.9558
       CONSTANT HEAD =           0.0000         CONSTANT HEAD =           0.0000
               WELLS =           0.0000                 WELLS =           0.0000
       RIVER LEAKAGE =     1458095.5000         RIVER LEAKAGE =           0.0000
            RECHARGE =       89481.1484              RECHARGE =         343.4863

            TOTAL IN =     2625591.2500              TOTAL IN =        2272.4421

          OUT:                                     OUT:
          ----                                     ----
             STORAGE =     1592636.0000               STORAGE =         420.8639
       CONSTANT HEAD =           0.0000         CONSTANT HEAD =           0.0000
               WELLS =       41289.5586                 WELLS =         223.5936
       RIVER LEAKAGE =      991765.1250         RIVER LEAKAGE =        1627.6041
            RECHARGE =           0.0000              RECHARGE =           0.0000

           TOTAL OUT =     2625690.5000             TOTAL OUT =        2272.0615

            IN - OUT =         -99.2500              IN - OUT =           0.3806

 PERCENT DISCREPANCY =          -0.00     PERCENT DISCREPANCY =           0.02






         TIME SUMMARY AT END OF TIME STEP   95 IN STRESS PERIOD    3
                    SECONDS     MINUTES      HOURS       DAYS        YEARS
                    -----------------------------------------------------------
   TIME STEP LENGTH  86400.      1440.0      24.000      1.0000     2.73785E-03
 STRESS PERIOD TIME 8.20800E+06 1.36800E+05  2280.0      95.000     0.26010    
         TOTAL TIME 1.69344E+07 2.82240E+05  4704.0      196.00     0.53662    
1

 SOLVING FOR HEAD 

    ------------------------------------------------
       NWT REQUIRED            3 OUTER ITERATIONS 
       AND A TOTAL OF          3 INNER ITERATIONS.
    ------------------------------------------------

 OUTPUT CONTROL FOR STRESS PERIOD    3   TIME STEP   96
    SAVE HEAD FOR ALL LAYERS
    SAVE DRAWDOWN FOR ALL LAYERS
    SAVE BUDGET
    PRINT HEAD FOR ALL LAYERS
    PRINT BUDGET
1
              HEAD IN LAYER   1 AT END OF TIME STEP  96 IN STRESS PERIOD    3
  ---------------------------------------------------------------------------

            1           2           3           4           5           6           7           8           9          10
           11          12          13          14          15          16          17          18          19          20
 ........................................................................................................................
   1    0.000       0.000       0.000       0.000       0.000       7.365       7.360       7.386       7.400       7.416    
        7.450       7.522       7.541       7.362       7.518       7.473       7.403       7.381       0.000       0.000    
   2    0.000       0.000       0.000       0.000       7.444       7.428       7.384       7.452       7.466       7.475    
        7.501       7.558       7.572       7.361       7.514       7.446       7.392       7.378       0.000       0.000    
   3    0.000       0.000       0.000       7.536       7.520       7.484       7.468       7.494       7.515       7.520    
        7.534       7.572       7.611       7.360       7.502       7.374       7.378       7.378       0.000       0.000    
   4    0.000       0.000       7.630       7.570       7.518       7.360       7.362       7.361       7.360       7.360    
        7.361       7.369       7.542       7.358       7.501       7.430       7.393       7.389       0.000       0.000    
   5    0.000       0.000       7.445       7.382       7.358       7.365       7.524       7.549       7.546       7.546    
        7.526       7.362       7.358       7.364       7.492       7.442       7.405       7.404       7.417       0.000    
   6    0.000       7.357       7.357       7.359       7.400       7.536       7.562       7.532       7.510       7.511    
        7.525       7.506       7.510       7.499       7.481       7.428       7.405       7.407       7.419       0.000    
   7    0.000       7.543       7.538       7.535       7.539       7.533       7.495       7.460       7.440       7.433    
        7.441       7.460       7.472       7.463       7.434       7.405       7.394       7.397       0.000       0.000    
   8    0.000       7.536       7.516       7.509       7.497       7.473       7.446       7.424       7.406       7.388    
        7.371       7.396       7.412       7.412       7.399       7.383       7.374       7.380       0.000       0.000    
   9    0.000       0.000       7.463       7.461       7.454       7.443       7.430       7.416       7.396       7.362    
        7.288       7.358       7.383       7.388       7.379       7.359       7.336       7.359       7.377       7.389    
  10    0.000       0.000       7.443       7.443       7.440       7.436       7.428       7.416       7.397       7.370    
        7.340       7.360       7.376       7.380       7.367       7.331       7.245       7.332       7.371       7.387    

 HEAD WILL BE SAVED ON UNIT   51 AT END OF TIME STEP   96, STRESS PERIOD    3

 DRAWDOWN WILL BE SAVED ON UNIT   52 AT END OF TIME STEP   96, STRESS PERIOD    3
1
  VOLUMETRIC BUDGET FOR ENTIRE MODEL AT END OF TIME STEP   96, STRESS PERIOD   3
  ------------------------------------------------------------------------------

     CUMULATIVE VOLUMES      L**3       RATES FOR THIS TIME STEP      L**3/T
     ------------------                 ------------------------

           IN:                                      IN:
           ---                                      ---
             STORAGE =     1079924.7500               STORAGE =        1910.1667
       CONSTANT HEAD =           0.0000         CONSTANT HEAD =           0.0000
               WELLS =           0.0000                 WELLS =           0.0000
       RIVER LEAKAGE =     1458095.5000         RIVER LEAKAGE =           0.0000
            RECHARGE =       89824.6328              RECHARGE =         343.4863

            TOTAL IN =     2627845.0000              TOTAL IN =        2253.6531

          OUT:                                     OUT:
          ----                                     ----
             STORAGE =     1593052.3750               STORAGE =         416.3756
       CONSTANT HEAD =           0.0000         CONSTANT HEAD =           0.0000
               WELLS =       41513.1523                 WELLS =         223.5936
       RIVER LEAKAGE =      993378.4375         RIVER LEAKAGE =        1613.3070
            RECHARGE =           0.0000              RECHARGE =           0.0000

           TOTAL OUT =     2627944.0000             TOTAL OUT =        2253.2764

            IN - OUT =         -99.0000              IN - OUT =           0.3767

 PERCENT DISCREPANCY =          -0.00     PERCENT DISCREPANCY =           0.02






         TIME SUMMARY AT END OF TIME STEP   96 IN STRESS PERIOD    3
                    SECONDS     MINUTES      HOURS       DAYS        YEARS
                    -----------------------------------------------------------
   TIME STEP LENGTH  86400.      1440.0      24.000      1.0000     2.73785E-03
 STRESS PERIOD TIME 8.29440E+06 1.38240E+05  2304.0      96.000     0.26283    
         TOTAL TIME 1.70208E+07 2.83680E+05  4728.0      197.00     0.53936    
1

 SOLVING FOR HEAD 

    ------------------------------------------------
       NWT REQUIRED            3 OUTER ITERATIONS 
       AND A TOTAL OF          3 INNER ITERATIONS.
    ------------------------------------------------

 OUTPUT CONTROL FOR STRESS PERIOD    3   TIME STEP   97
    SAVE HEAD FOR ALL LAYERS
    SAVE DRAWDOWN FOR ALL LAYERS
    SAVE BUDGET
    PRINT HEAD FOR ALL LAYERS
    PRINT BUDGET
1
              HEAD IN LAYER   1 AT END OF TIME STEP  97 IN STRESS PERIOD    3
  ---------------------------------------------------------------------------

            1           2           3           4           5           6           7           8           9          10
           11          12          13          14          15          16          17          18          19          20
 ........................................................................................................................
   1    0.000       0.000       0.000       0.000       0.000       7.366       7.361       7.386       7.401       7.416    
        7.450       7.522       7.539       7.362       7.516       7.473       7.403       7.381       0.000       0.000    
   2    0.000       0.000       0.000       0.000       7.445       7.428       7.384       7.451       7.466       7.475    
        7.501       7.558       7.570       7.361       7.513       7.446       7.393       7.378       0.000       0.000    
   3    0.000       0.000       0.000       7.536       7.519       7.483       7.466       7.493       7.514       7.519    
        7.533       7.570       7.610       7.360       7.501       7.374       7.378       7.378       0.000       0.000    
   4    0.000       0.000       7.629       7.569       7.517       7.360       7.362       7.361       7.360       7.360    
        7.361       7.369       7.540       7.358       7.500       7.430       7.394       7.389       0.000       0.000    
   5    0.000       0.000       7.444       7.382       7.358       7.365       7.522       7.547       7.544       7.545    
        7.525       7.361       7.358       7.364       7.491       7.442       7.405       7.404       7.417       0.000    
   6    0.000       7.357       7.357       7.359       7.400       7.535       7.561       7.531       7.510       7.511    
        7.524       7.505       7.509       7.498       7.481       7.428       7.405       7.407       7.419       0.000    
   7    0.000       7.542       7.537       7.534       7.538       7.533       7.495       7.460       7.440       7.434    
        7.441       7.460       7.471       7.462       7.434       7.405       7.394       7.397       0.000       0.000    
   8    0.000       7.536       7.516       7.509       7.497       7.474       7.446       7.425       7.407       7.388    
        7.371       7.396       7.412       7.412       7.399       7.383       7.374       7.380       0.000       0.000    
   9    0.000       0.000       7.463       7.461       7.455       7.443       7.430       7.416       7.396       7.362    
        7.288       7.358       7.383       7.388       7.379       7.359       7.336       7.359       7.377       7.389    
  10    0.000       0.000       7.443       7.443       7.441       7.436       7.428       7.416       7.397       7.370    
        7.340       7.360       7.376       7.380       7.367       7.331       7.245       7.332       7.371       7.387    

 HEAD WILL BE SAVED ON UNIT   51 AT END OF TIME STEP   97, STRESS PERIOD    3

 DRAWDOWN WILL BE SAVED ON UNIT   52 AT END OF TIME STEP   97, STRESS PERIOD    3
1
  VOLUMETRIC BUDGET FOR ENTIRE MODEL AT END OF TIME STEP   97, STRESS PERIOD   3
  ------------------------------------------------------------------------------

     CUMULATIVE VOLUMES      L**3       RATES FOR THIS TIME STEP      L**3/T
     ------------------                 ------------------------

           IN:                                      IN:
           ---                                      ---
             STORAGE =     1081816.7500               STORAGE =        1891.9401
       CONSTANT HEAD =           0.0000         CONSTANT HEAD =           0.0000
               WELLS =           0.0000                 WELLS =           0.0000
       RIVER LEAKAGE =     1458095.5000         RIVER LEAKAGE =           0.0000
            RECHARGE =       90168.1172              RECHARGE =         343.4863

            TOTAL IN =     2630080.2500              TOTAL IN =        2235.4263

          OUT:                                     OUT:
          ----                                     ----
             STORAGE =     1593464.6250               STORAGE =         412.2272
       CONSTANT HEAD =           0.0000         CONSTANT HEAD =           0.0000
               WELLS =       41736.7461                 WELLS =         223.5936
       RIVER LEAKAGE =      994977.6875         RIVER LEAKAGE =        1599.2323
            RECHARGE =           0.0000              RECHARGE =           0.0000

           TOTAL OUT =     2630179.0000             TOTAL OUT =        2235.0532

            IN - OUT =         -98.7500              IN - OUT =           0.3730

 PERCENT DISCREPANCY =          -0.00     PERCENT DISCREPANCY =           0.02






         TIME SUMMARY AT END OF TIME STEP   97 IN STRESS PERIOD    3
                    SECONDS     MINUTES      HOURS       DAYS        YEARS
                    -----------------------------------------------------------
   TIME STEP LENGTH  86400.      1440.0      24.000      1.0000     2.73785E-03
 STRESS PERIOD TIME 8.38080E+06 1.39680E+05  2328.0      97.000     0.26557    
         TOTAL TIME 1.71072E+07 2.85120E+05  4752.0      198.00     0.54209    
1

 SOLVING FOR HEAD 

    ------------------------------------------------
       NWT REQUIRED            3 OUTER ITERATIONS 
       AND A TOTAL OF          3 INNER ITERATIONS.
    ------------------------------------------------

 OUTPUT CONTROL FOR STRESS PERIOD    3   TIME STEP   98
    SAVE HEAD FOR ALL LAYERS
    SAVE DRAWDOWN FOR ALL LAYERS
    SAVE BUDGET
    PRINT HEAD FOR ALL LAYERS
    PRINT BUDGET
1
              HEAD IN LAYER   1 AT END OF TIME STEP  98 IN STRESS PERIOD    3
  ---------------------------------------------------------------------------

            1           2           3           4           5           6           7           8           9          10
           11          12          13          14          15          16          17          18          19          20
 ........................................................................................................................
   1    0.000       0.000       0.000       0.000       0.000       7.366       7.361       7.386       7.401       7.417    
        7.451       7.522       7.538       7.362       7.515       7.472       7.403       7.381       0.000       0.000    
   2    0.000       0.000       0.000       0.000       7.445       7.428       7.383       7.451       7.466       7.475    
        7.501       7.557       7.569       7.361       7.511       7.446       7.393       7.378       0.000       0.000    
   3    0.000       0.000       0.000       7.537       7.519       7.482       7.465       7.491       7.513       7.518    
        7.532       7.569       7.608       7.360       7.499       7.374       7.378       7.378       0.000       0.000    
   4    0.000       0.000       7.627       7.568       7.515       7.360       7.362       7.361       7.360       7.360    
        7.361       7.369       7.538       7.358       7.499       7.430       7.394       7.389       0.000       0.000    
   5    0.000       0.000       7.442       7.381       7.358       7.365       7.521       7.546       7.543       7.544    
        7.523       7.361       7.358       7.364       7.491       7.442       7.405       7.404       7.418       0.000    
   6    0.000       7.357       7.357       7.359       7.399       7.533       7.560       7.531       7.510       7.511    
        7.524       7.505       7.508       7.497       7.480       7.428       7.405       7.407       7.419       0.000    
   7    0.000       7.541       7.536       7.533       7.537       7.532       7.495       7.461       7.441       7.434    
        7.441       7.460       7.471       7.462       7.434       7.405       7.394       7.397       0.000       0.000    
   8    0.000       7.536       7.516       7.509       7.497       7.474       7.446       7.425       7.407       7.388    
        7.371       7.396       7.412       7.412       7.399       7.383       7.374       7.380       0.000       0.000    
   9    0.000       0.000       7.463       7.461       7.455       7.443       7.430       7.416       7.396       7.363    
        7.288       7.358       7.383       7.388       7.379       7.359       7.335       7.359       7.377       7.389    
  10    0.000       0.000       7.443       7.443       7.441       7.436       7.428       7.416       7.397       7.370    
        7.340       7.360       7.376       7.380       7.367       7.331       7.245       7.332       7.371       7.387    

 HEAD WILL BE SAVED ON UNIT   51 AT END OF TIME STEP   98, STRESS PERIOD    3

 DRAWDOWN WILL BE SAVED ON UNIT   52 AT END OF TIME STEP   98, STRESS PERIOD    3
1
  VOLUMETRIC BUDGET FOR ENTIRE MODEL AT END OF TIME STEP   98, STRESS PERIOD   3
  ------------------------------------------------------------------------------

     CUMULATIVE VOLUMES      L**3       RATES FOR THIS TIME STEP      L**3/T
     ------------------                 ------------------------

           IN:                                      IN:
           ---                                      ---
             STORAGE =     1083691.0000               STORAGE =        1874.2284
       CONSTANT HEAD =           0.0000         CONSTANT HEAD =           0.0000
               WELLS =           0.0000                 WELLS =           0.0000
       RIVER LEAKAGE =     1458095.5000         RIVER LEAKAGE =           0.0000
            RECHARGE =       90511.6016              RECHARGE =         343.4863

            TOTAL IN =     2632298.0000              TOTAL IN =        2217.7148

          OUT:                                     OUT:
          ----                                     ----
             STORAGE =     1593873.0000               STORAGE =         408.3540
       CONSTANT HEAD =           0.0000         CONSTANT HEAD =           0.0000
               WELLS =       41960.3398                 WELLS =         223.5936
       RIVER LEAKAGE =      996563.0625         RIVER LEAKAGE =        1585.3973
            RECHARGE =           0.0000              RECHARGE =           0.0000

           TOTAL OUT =     2632396.5000             TOTAL OUT =        2217.3450

            IN - OUT =         -98.5000              IN - OUT =           0.3699

 PERCENT DISCREPANCY =          -0.00     PERCENT DISCREPANCY =           0.02






         TIME SUMMARY AT END OF TIME STEP   98 IN STRESS PERIOD    3
                    SECONDS     MINUTES      HOURS       DAYS        YEARS
                    -----------------------------------------------------------
   TIME STEP LENGTH  86400.      1440.0      24.000      1.0000     2.73785E-03
 STRESS PERIOD TIME 8.46720E+06 1.41120E+05  2352.0      98.000     0.26831    
         TOTAL TIME 1.71936E+07 2.86560E+05  4776.0      199.00     0.54483    
1

 SOLVING FOR HEAD 

    ------------------------------------------------
       NWT REQUIRED            3 OUTER ITERATIONS 
       AND A TOTAL OF          3 INNER ITERATIONS.
    ------------------------------------------------

 OUTPUT CONTROL FOR STRESS PERIOD    3   TIME STEP   99
    SAVE HEAD FOR ALL LAYERS
    SAVE DRAWDOWN FOR ALL LAYERS
    SAVE BUDGET
    PRINT HEAD FOR ALL LAYERS
    PRINT BUDGET
1
              HEAD IN LAYER   1 AT END OF TIME STEP  99 IN STRESS PERIOD    3
  ---------------------------------------------------------------------------

            1           2           3           4           5           6           7           8           9          10
           11          12          13          14          15          16          17          18          19          20
 ........................................................................................................................
   1    0.000       0.000       0.000       0.000       0.000       7.366       7.361       7.387       7.401       7.417    
        7.451       7.522       7.537       7.362       7.513       7.472       7.404       7.381       0.000       0.000    
   2    0.000       0.000       0.000       0.000       7.446       7.428       7.383       7.451       7.465       7.476    
        7.501       7.557       7.567       7.361       7.510       7.446       7.393       7.378       0.000       0.000    
   3    0.000       0.000       0.000       7.537       7.518       7.481       7.464       7.490       7.512       7.517    
        7.531       7.568       7.606       7.360       7.498       7.374       7.379       7.378       0.000       0.000    
   4    0.000       0.000       7.626       7.567       7.514       7.360       7.362       7.361       7.359       7.360    
        7.361       7.368       7.535       7.358       7.498       7.430       7.394       7.389       0.000       0.000    
   5    0.000       0.000       7.441       7.381       7.358       7.365       7.519       7.544       7.542       7.542    
        7.522       7.361       7.358       7.364       7.490       7.442       7.405       7.404       7.418       0.000    
   6    0.000       7.357       7.357       7.359       7.399       7.532       7.559       7.531       7.510       7.511    
        7.523       7.504       7.507       7.496       7.480       7.429       7.405       7.407       7.419       0.000    
   7    0.000       7.540       7.535       7.532       7.536       7.532       7.495       7.461       7.441       7.434    
        7.442       7.460       7.471       7.462       7.434       7.405       7.394       7.397       0.000       0.000    
   8    0.000       7.536       7.516       7.509       7.497       7.474       7.446       7.425       7.407       7.388    
        7.371       7.396       7.412       7.412       7.399       7.383       7.374       7.380       0.000       0.000    
   9    0.000       0.000       7.464       7.461       7.455       7.443       7.430       7.416       7.396       7.363    
        7.288       7.358       7.383       7.388       7.379       7.359       7.335       7.359       7.377       7.389    
  10    0.000       0.000       7.443       7.443       7.441       7.436       7.428       7.416       7.397       7.370    
        7.340       7.360       7.376       7.380       7.367       7.331       7.245       7.332       7.371       7.387    

 HEAD WILL BE SAVED ON UNIT   51 AT END OF TIME STEP   99, STRESS PERIOD    3

 DRAWDOWN WILL BE SAVED ON UNIT   52 AT END OF TIME STEP   99, STRESS PERIOD    3
1
  VOLUMETRIC BUDGET FOR ENTIRE MODEL AT END OF TIME STEP   99, STRESS PERIOD   3
  ------------------------------------------------------------------------------

     CUMULATIVE VOLUMES      L**3       RATES FOR THIS TIME STEP      L**3/T
     ------------------                 ------------------------

           IN:                                      IN:
           ---                                      ---
             STORAGE =     1085547.7500               STORAGE =        1856.7664
       CONSTANT HEAD =           0.0000         CONSTANT HEAD =           0.0000
               WELLS =           0.0000                 WELLS =           0.0000
       RIVER LEAKAGE =     1458095.5000         RIVER LEAKAGE =           0.0000
            RECHARGE =       90855.0859              RECHARGE =         343.4863

            TOTAL IN =     2634498.2500              TOTAL IN =        2200.2527

          OUT:                                     OUT:
          ----                                     ----
             STORAGE =     1594277.5000               STORAGE =         404.4999
       CONSTANT HEAD =           0.0000         CONSTANT HEAD =           0.0000
               WELLS =       42183.9336                 WELLS =         223.5936
       RIVER LEAKAGE =      998134.8750         RIVER LEAKAGE =        1571.7928
            RECHARGE =           0.0000              RECHARGE =           0.0000

           TOTAL OUT =     2634596.2500             TOTAL OUT =        2199.8862

            IN - OUT =         -98.0000              IN - OUT =           0.3665

 PERCENT DISCREPANCY =          -0.00     PERCENT DISCREPANCY =           0.02






         TIME SUMMARY AT END OF TIME STEP   99 IN STRESS PERIOD    3
                    SECONDS     MINUTES      HOURS       DAYS        YEARS
                    -----------------------------------------------------------
   TIME STEP LENGTH  86400.      1440.0      24.000      1.0000     2.73785E-03
 STRESS PERIOD TIME 8.55360E+06 1.42560E+05  2376.0      99.000     0.27105    
         TOTAL TIME 1.72800E+07 2.88000E+05  4800.0      200.00     0.54757    
1

 SOLVING FOR HEAD 

    ------------------------------------------------
       NWT REQUIRED            3 OUTER ITERATIONS 
       AND A TOTAL OF          3 INNER ITERATIONS.
    ------------------------------------------------

 OUTPUT CONTROL FOR STRESS PERIOD    3   TIME STEP  100
    SAVE HEAD FOR ALL LAYERS
    SAVE DRAWDOWN FOR ALL LAYERS
    SAVE BUDGET
    PRINT HEAD FOR ALL LAYERS
    PRINT BUDGET
1
              HEAD IN LAYER   1 AT END OF TIME STEP 100 IN STRESS PERIOD    3
  ---------------------------------------------------------------------------

            1           2           3           4           5           6           7           8           9          10
           11          12          13          14          15          16          17          18          19          20
 ........................................................................................................................
   1    0.000       0.000       0.000       0.000       0.000       7.367       7.362       7.387       7.402       7.418    
        7.452       7.522       7.535       7.362       7.512       7.472       7.404       7.381       0.000       0.000    
   2    0.000       0.000       0.000       0.000       7.446       7.428       7.382       7.450       7.465       7.476    
        7.501       7.557       7.566       7.361       7.509       7.446       7.393       7.379       0.000       0.000    
   3    0.000       0.000       0.000       7.537       7.518       7.480       7.463       7.489       7.510       7.516    
        7.530       7.567       7.604       7.360       7.497       7.374       7.379       7.378       0.000       0.000    
   4    0.000       0.000       7.625       7.565       7.513       7.360       7.362       7.361       7.359       7.360    
        7.361       7.368       7.533       7.358       7.497       7.429       7.394       7.389       0.000       0.000    
   5    0.000       0.000       7.440       7.381       7.357       7.365       7.517       7.543       7.541       7.541    
        7.520       7.361       7.358       7.364       7.489       7.442       7.406       7.404       7.418       0.000    
   6    0.000       7.357       7.357       7.359       7.398       7.530       7.559       7.531       7.510       7.510    
        7.523       7.503       7.506       7.495       7.480       7.429       7.405       7.407       7.419       0.000    
   7    0.000       7.539       7.534       7.531       7.535       7.531       7.496       7.461       7.441       7.435    
        7.442       7.459       7.471       7.462       7.434       7.405       7.394       7.397       0.000       0.000    
   8    0.000       7.536       7.516       7.508       7.497       7.474       7.447       7.425       7.407       7.388    
        7.372       7.396       7.412       7.413       7.399       7.383       7.374       7.380       0.000       0.000    
   9    0.000       0.000       7.464       7.461       7.455       7.444       7.430       7.416       7.396       7.363    
        7.288       7.358       7.383       7.388       7.379       7.359       7.335       7.359       7.377       7.389    
  10    0.000       0.000       7.444       7.443       7.441       7.436       7.428       7.416       7.397       7.370    
        7.340       7.360       7.376       7.380       7.367       7.331       7.244       7.332       7.371       7.387    

 HEAD WILL BE SAVED ON UNIT   51 AT END OF TIME STEP  100, STRESS PERIOD    3

 DRAWDOWN WILL BE SAVED ON UNIT   52 AT END OF TIME STEP  100, STRESS PERIOD    3
1
  VOLUMETRIC BUDGET FOR ENTIRE MODEL AT END OF TIME STEP  100, STRESS PERIOD   3
  ------------------------------------------------------------------------------

     CUMULATIVE VOLUMES      L**3       RATES FOR THIS TIME STEP      L**3/T
     ------------------                 ------------------------

           IN:                                      IN:
           ---                                      ---
             STORAGE =     1087387.2500               STORAGE =        1839.5310
       CONSTANT HEAD =           0.0000         CONSTANT HEAD =           0.0000
               WELLS =           0.0000                 WELLS =           0.0000
       RIVER LEAKAGE =     1458095.5000         RIVER LEAKAGE =           0.0000
            RECHARGE =       91198.5703              RECHARGE =         343.4863

            TOTAL IN =     2636681.2500              TOTAL IN =        2183.0173

          OUT:                                     OUT:
          ----                                     ----
             STORAGE =     1594678.1250               STORAGE =         400.6650
       CONSTANT HEAD =           0.0000         CONSTANT HEAD =           0.0000
               WELLS =       42407.5273                 WELLS =         223.5936
       RIVER LEAKAGE =      999693.2500         RIVER LEAKAGE =        1558.3958
            RECHARGE =           0.0000              RECHARGE =           0.0000

           TOTAL OUT =     2636779.0000             TOTAL OUT =        2182.6543

            IN - OUT =         -97.7500              IN - OUT =           0.3630

 PERCENT DISCREPANCY =          -0.00     PERCENT DISCREPANCY =           0.02






         TIME SUMMARY AT END OF TIME STEP  100 IN STRESS PERIOD    3
                    SECONDS     MINUTES      HOURS       DAYS        YEARS
                    -----------------------------------------------------------
   TIME STEP LENGTH  86400.      1440.0      24.000      1.0000     2.73785E-03
 STRESS PERIOD TIME 8.64000E+06 1.44000E+05  2400.0      100.00     0.27379    
         TOTAL TIME 1.73664E+07 2.89440E+05  4824.0      201.00     0.55031    
1

 Run end date and time (yyyy/mm/dd hh:mm:ss): 2014/11/18 15:27:24
 Elapsed run time:  0.136 Seconds

