                                  MODFLOW-NWT-SWR1 
      U.S. GEOLOGICAL SURVEY MODULAR FINITE-DIFFERENCE GROUNDWATER-FLOW MODEL
                            VERSION 1.0.9 07/01/2014
                    BASED ON MODFLOW-2005 VERSION 1.11.00 08/30/2013

 LIST FILE: flopy_model.list
                         UNIT    2

 OPENING flopy_model.nwt
 FILE TYPE:NWT   UNIT   32   STATUS:OLD    
 FORMAT:FORMATTED              ACCESS:SEQUENTIAL          

 OPENING flopy_model.dis
 FILE TYPE:DIS   UNIT   11   STATUS:OLD    
 FORMAT:FORMATTED              ACCESS:SEQUENTIAL          

 OPENING flopy_model.bas
 FILE TYPE:BAS6   UNIT   13   STATUS:OLD    
 FORMAT:FORMATTED              ACCESS:SEQUENTIAL          

 OPENING flopy_model.upw
 FILE TYPE:UPW   UNIT   31   STATUS:OLD    
 FORMAT:FORMATTED              ACCESS:SEQUENTIAL          

 OPENING flopy_model.wel
 FILE TYPE:WEL   UNIT   20   STATUS:OLD    
 FORMAT:FORMATTED              ACCESS:SEQUENTIAL          

 OPENING flopy_model.riv
 FILE TYPE:RIV   UNIT   18   STATUS:OLD    
 FORMAT:FORMATTED              ACCESS:SEQUENTIAL          

 OPENING flopy_model.rch
 FILE TYPE:RCH   UNIT   19   STATUS:OLD    
 FORMAT:FORMATTED              ACCESS:SEQUENTIAL          

 OPENING flopy_model.oc
 FILE TYPE:OC   UNIT   14   STATUS:OLD    
 FORMAT:FORMATTED              ACCESS:SEQUENTIAL          

 OPENING flopy_model.hds
 FILE TYPE:DATA(BINARY)   UNIT   51   STATUS:REPLACE
 FORMAT:UNFORMATTED            ACCESS:STREAM              

 OPENING flopy_model.ddn
 FILE TYPE:DATA(BINARY)   UNIT   52   STATUS:REPLACE
 FORMAT:UNFORMATTED            ACCESS:STREAM              

 OPENING flopy_model.cbc
 FILE TYPE:DATA(BINARY)   UNIT   53   STATUS:REPLACE
 FORMAT:UNFORMATTED            ACCESS:STREAM              

 BAS -- BASIC PACKAGE, VERSION 7, 5/2/2005 INPUT READ FROM UNIT   13

 MODFLOW was compiled using mixed precision
 Precision of REAL variables:           6
 Precision of DOUBLE PRECISION variables:          15

 DISCRETIZATION INPUT DATA READ FROM UNIT   11
 # Discretization file for MODFLOW, generated by Flopy.
    1 LAYERS        10 ROWS        20 COLUMNS
    3 STRESS PERIOD(S) IN SIMULATION
 MODEL TIME UNIT IS DAYS
 MODEL LENGTH UNIT IS METERS
  Confining bed flag for each layer:
   0

                     DELR =   2857.99    

                     DELC =   2616.01    

 TOP ELEVATION OF LAYER 1 =   0.00000    

   MODEL LAYER BOTTOM EL. =  -50.0000     FOR LAYER   1


 STRESS PERIOD     LENGTH       TIME STEPS     MULTIPLIER FOR DELT    SS FLAG
 ----------------------------------------------------------------------------
        1         1.000000          1                    1.000         SS
        2         100.0000        100                    1.000         TR
        3         100.0000        100                    1.000         TR

 COMBINED STEADY-STATE AND TRANSIENT SIMULATION




 # Basic package file for MODFLOW, generated by Flopy.                           
 THE FREE FORMAT OPTION HAS BEEN SELECTED



                     BOUNDARY ARRAY FOR LAYER   1
 READING ON UNIT   13 WITH FORMAT: (20I10)             

 AQUIFER HEAD WILL BE SET TO   0.0000     AT ALL NO-FLOW NODES (IBOUND=0).



                       INITIAL HEAD FOR LAYER   1
 READING ON UNIT   13 WITH FORMAT: (20G15.6)           
 # Output control package file for MODFLOW, generated by Flopy. Output control by words option

 OUTPUT CONTROL IS SPECIFIED ONLY AT TIME STEPS FOR WHICH OUTPUT IS DESIRED
 HEAD PRINT FORMAT CODE IS   0    DRAWDOWN PRINT FORMAT CODE IS   0
 HEADS WILL BE SAVED ON UNIT   51    DRAWDOWNS WILL BE SAVED ON UNIT   52
 # NWT for MODFLOW-NWT, generated by Flopy.

 NWT1 -- Newton Solver, VERSION 1.0.9, 07/01/2014
         INPUT READ FROM UNIT 32

 COMPLEX OPTION:
 DEFAULT SOLVER INPUT VALUES REFLECT STRONGLY NONLINEAR MODEL
 ***GMRES linear solver will be used***

   CONVERGENCE CRITERION OF   0.100000E-03 FOR HEAD SOLUTION
   AND A TOLERANCE OF   0.500000E+03 FOR FLOW SOLUTION AND 
   A MAXIMUM OF   100 OUTER ITERATIONS. 


   D-B-D REDUCTION FACTOR OF    0.850000E+00 AND 
   A D-B-D INCREASE FACTOR OF    0.100000E-04 AND 
   A D-B-D RELAXATION OF    0.000000E+00 AND 
   A MOMENTUM FACTOR OF    0.100000E+00 .


   BACKTRACKING IS ACTIVE 
   THE MAXIMUM NUMBER OF BACKTRACKS IS    50 AND 
   THE BACKTRACKING TOLERANCE IS    0.110000E+01 AND
   THE BACKTRACKING REDUCTION FACTOR IS    0.700000E+00

 GMRES -- LINEAR SOLUTION BY GMRES PACKAGE 
     adapted for HYDROTHERM by Kipp and others (2008)
     using software originally developed by Saad (1990) 32
     using algorithms described in Saad (2003)

 UPW1 -- UPSTREAM WEIGHTING FLOW PACKAGE, VERSION 1.0.6, 12/05/2012
         INPUT READ FROM UNIT 31

 # UPW for MODFLOW-NWT, generated by Flopy.
 No named parameters

   LAYER FLAGS:
 LAYER       LAYTYP          LAYAVG    CHANI           LAYVKA           LAYWET
 ---------------------------------------------------------------------------
    1             1             1     1.000E+00             1             0

   INTERPRETATION OF LAYER FLAGS:
                        INTERBLOCK     HORIZONTAL    DATA IN
         LAYER TYPE   TRANSMISSIVITY   ANISOTROPY   ARRAY VKA   WETTABILITY
 LAYER   (LAYTYP)        (LAYAVG)      (CHANI)     (LAYVKA)       (LAYWET)
 ---------------------------------------------------------------------------
    1   CONVERTIBLE   LOGARITHMIC     1.000E+00    ANISOTROPY  NON-WETTABLE



              HYD. COND. ALONG ROWS FOR LAYER   1
 READING ON UNIT   31 WITH FORMAT: (20G15.6)           

  HORIZ. TO VERTICAL ANI. =   1.00000     FOR LAYER   1

         SPECIFIC STORAGE =  1.000000E-04 FOR LAYER   1



                     SPECIFIC YIELD FOR LAYER   1
 READING ON UNIT   31 WITH FORMAT: (20G15.6)           

 WEL -- WELL PACKAGE, VERSION 1.0.6, 12/05/2012 INPUT READ FROM UNIT   20
 # Well file for MODFLOW, generated by Flopy.
 No named parameters
 MAXIMUM OF      4 ACTIVE WELLS AT ONE TIME
 No named parameters
  PHIRAMP WILL BE SET TO A DEFAULT VALUE OF 0.05
  WELLS WITH REDUCED PUMPING WILL BE REPORTED TO THE MAIN LISTING FILE


     0 Well parameters

 RIV -- RIVER PACKAGE, VERSION 7, 5/2/2005 INPUT READ FROM UNIT   18
 # RIV for MODFLOW, generated by Flopy.
 No named parameters
 MAXIMUM OF     22 ACTIVE RIVER REACHES AT ONE TIME


     0 River parameters

 RCH -- RECHARGE PACKAGE, VERSION 7, 5/2/2005 INPUT READ FROM UNIT   19
 # RCH for MODFLOW, generated by Flopy.
 No named parameters
 OPTION 3 -- RECHARGE TO HIGHEST ACTIVE NODE IN EACH VERTICAL COLUMN


     0 Recharge parameters
1
                            STRESS PERIOD NO.    1, LENGTH =   1.000000    
                            -----------------------------------------------

                              NUMBER OF TIME STEPS =     1

                               MULTIPLIER FOR DELT =     1.000

                            INITIAL TIME STEP SIZE =   1.000000    

 WELL NO.  LAYER   ROW   COL   STRESS RATE         
 --------------------------------------------------
      1      1      7      9      -175.2    
      2      1      7     14      -34.41    
      3      1      3     16      -299.9    
      4      1      2      7       0.000    

      4 WELLS

 REACH NO.  LAYER   ROW   COL     STAGE      CONDUCTANCE     BOTTOM EL.         
 -------------------------------------------------------------------------------
      1      1      1     14     -0.6413           3334.          -3.000    
      2      1      2     14     -0.6413           3302.          -3.000    
      3      1      3     14     -0.6413           2941.          -3.000    
      4      1      4      6     -0.6413           2595.          -3.000    
      5      1      4      7     -0.6413           2654.          -3.000    
      6      1      4      8     -0.6413           2734.          -3.000    
      7      1      4      9     -0.6413           3007.          -3.000    
      8      1      4     10     -0.6413           2766.          -3.000    
      9      1      4     11     -0.6413           2487.          -3.000    
     10      1      4     12     -0.6413           1221.          -3.000    
     11      1      4     14     -0.6413           3631.          -3.000    
     12      1      5      3     -0.6413           172.7          -3.000    
     13      1      5      4     -0.6413           505.2          -3.000    
     14      1      5      5     -0.6413           3267.          -3.000    
     15      1      5      6     -0.6413           1418.          -3.000    
     16      1      5     12     -0.6413           1969.          -3.000    
     17      1      5     13     -0.6413           4006.          -3.000    
     18      1      5     14     -0.6413           1262.          -3.000    
     19      1      6      2     -0.6413           3066.          -3.000    
     20      1      6      3     -0.6413           4538.          -3.000    
     21      1      6      4     -0.6413           2546.          -3.000    
     22      1      6      5     -0.6413           323.7          -3.000    

     22 RIVER REACHES



                           RECHARGE
 READING ON UNIT   19 WITH FORMAT: (20G15.6)           

 SOLVING FOR HEAD 

    ------------------------------------------------
       NWT REQUIRED            7 OUTER ITERATIONS 
       AND A TOTAL OF         39 INNER ITERATIONS.
    ------------------------------------------------

 OUTPUT CONTROL FOR STRESS PERIOD    1   TIME STEP    1
    SAVE HEAD FOR ALL LAYERS
    SAVE DRAWDOWN FOR ALL LAYERS
    SAVE BUDGET
    PRINT HEAD FOR ALL LAYERS
    PRINT BUDGET
1
              HEAD IN LAYER   1 AT END OF TIME STEP   1 IN STRESS PERIOD    1
  ---------------------------------------------------------------------------

            1           2           3           4           5           6           7           8           9          10
           11          12          13          14          15          16          17          18          19          20
 ........................................................................................................................
   1    0.000       0.000       0.000       0.000       0.000       10.45       10.31       10.75       11.43       11.36    
        10.12       7.247       2.158     -0.1817       5.785       21.50       31.85       37.39       0.000       0.000    
   2    0.000       0.000       0.000       0.000       8.260       7.841       7.048       7.736       9.230       9.510    
        8.642       6.466       2.512     -0.2070       8.358       23.26       33.55       39.45       0.000       0.000    
   3    0.000       0.000       0.000       6.229       5.908       4.002       3.174       3.753       5.170       5.720    
        5.369       4.323       2.722     -0.3246       14.11       26.03       36.99       43.71       0.000       0.000    
   4    0.000       0.000       3.520       3.838       2.675     -0.3134     -9.5164E-02 -0.1369     -0.2990     -0.2569    
      -0.2633     -0.2589       1.317     -0.3236       19.04       32.30       42.04       50.67       0.000       0.000    
   5    0.000       0.000      0.6321      4.1137E-02 -0.4809     -1.0108E-02   4.927       8.243       11.39       12.06    
        9.918      0.1669     -0.2676       1.316       26.07       39.59       53.30       64.37       75.29       0.000    
   6    0.000     -0.4080     -0.4476     -0.2396       2.442       10.72       16.00       19.65       22.26       23.81    
        23.56       21.51       22.92       28.11       40.90       53.35       67.71       72.79       77.75       0.000    
   7    0.000       9.728       11.31       13.16       16.28       21.29       25.69       29.09       31.12       34.11    
        35.72       36.97       39.97       45.52       54.80       65.04       74.09       80.14       0.000       0.000    
   8    0.000       15.94       20.25       22.88       25.90       29.70       33.47       36.82       39.67       42.59    
        45.19       47.97       51.87       57.47       64.94       73.11       80.60       88.69       0.000       0.000    
   9    0.000       0.000       28.00       29.67       32.24       35.44       38.84       42.15       45.28       48.40    
        51.55       55.04       59.39       64.91       71.60       78.93       86.38       94.34       102.2       107.1    
  10    0.000       0.000       31.75       33.10       35.41       38.35       41.58       44.85       48.08       51.32    
        54.70       58.49       63.01       68.49       74.88       81.88       89.10       96.34       102.7       106.4    

 HEAD WILL BE SAVED ON UNIT   51 AT END OF TIME STEP    1, STRESS PERIOD    1

 DRAWDOWN WILL BE SAVED ON UNIT   52 AT END OF TIME STEP    1, STRESS PERIOD    1
1
  VOLUMETRIC BUDGET FOR ENTIRE MODEL AT END OF TIME STEP    1, STRESS PERIOD   1
  ------------------------------------------------------------------------------

     CUMULATIVE VOLUMES      L**3       RATES FOR THIS TIME STEP      L**3/T
     ------------------                 ------------------------

           IN:                                      IN:
           ---                                      ---
             STORAGE =           0.0000               STORAGE =           0.0000
       CONSTANT HEAD =           0.0000         CONSTANT HEAD =           0.0000
               WELLS =           0.0000                 WELLS =           0.0000
       RIVER LEAKAGE =           0.0000         RIVER LEAKAGE =           0.0000
            RECHARGE =       23896.3672              RECHARGE =       23896.3672

            TOTAL IN =       23896.3672              TOTAL IN =       23896.3672

          OUT:                                     OUT:
          ----                                     ----
             STORAGE =           0.0000               STORAGE =           0.0000
       CONSTANT HEAD =           0.0000         CONSTANT HEAD =           0.0000
               WELLS =         509.4487                 WELLS =         509.4487
       RIVER LEAKAGE =       23386.9219         RIVER LEAKAGE =       23386.9219
            RECHARGE =           0.0000              RECHARGE =           0.0000

           TOTAL OUT =       23896.3711             TOTAL OUT =       23896.3711

            IN - OUT =      -3.9062E-03              IN - OUT =      -3.9062E-03

 PERCENT DISCREPANCY =          -0.00     PERCENT DISCREPANCY =          -0.00






         TIME SUMMARY AT END OF TIME STEP    1 IN STRESS PERIOD    1
                    SECONDS     MINUTES      HOURS       DAYS        YEARS
                    -----------------------------------------------------------
   TIME STEP LENGTH  86400.      1440.0      24.000      1.0000     2.73785E-03
 STRESS PERIOD TIME  86400.      1440.0      24.000      1.0000     2.73785E-03
         TOTAL TIME  86400.      1440.0      24.000      1.0000     2.73785E-03
1
1
                            STRESS PERIOD NO.    2, LENGTH =   100.0000    
                            -----------------------------------------------

                              NUMBER OF TIME STEPS =   100

                               MULTIPLIER FOR DELT =     1.000

                            INITIAL TIME STEP SIZE =   1.000000    

 WELL NO.  LAYER   ROW   COL   STRESS RATE         
 --------------------------------------------------
      1      1      7      9      -175.2    
      2      1      7     14      -34.41    
      3      1      3     16      -299.9    
      4      1      2      7       0.000    

      4 WELLS

 REACH NO.  LAYER   ROW   COL     STAGE      CONDUCTANCE     BOTTOM EL.         
 -------------------------------------------------------------------------------
      1      1      1     14     -0.7661           3334.          -3.000    
      2      1      2     14     -0.7661           3302.          -3.000    
      3      1      3     14     -0.7661           2941.          -3.000    
      4      1      4      6     -0.7661           2595.          -3.000    
      5      1      4      7     -0.7661           2654.          -3.000    
      6      1      4      8     -0.7661           2734.          -3.000    
      7      1      4      9     -0.7661           3007.          -3.000    
      8      1      4     10     -0.7661           2766.          -3.000    
      9      1      4     11     -0.7661           2487.          -3.000    
     10      1      4     12     -0.7661           1221.          -3.000    
     11      1      4     14     -0.7661           3631.          -3.000    
     12      1      5      3     -0.7661           172.7          -3.000    
     13      1      5      4     -0.7661           505.2          -3.000    
     14      1      5      5     -0.7661           3267.          -3.000    
     15      1      5      6     -0.7661           1418.          -3.000    
     16      1      5     12     -0.7661           1969.          -3.000    
     17      1      5     13     -0.7661           4006.          -3.000    
     18      1      5     14     -0.7661           1262.          -3.000    
     19      1      6      2     -0.7661           3066.          -3.000    
     20      1      6      3     -0.7661           4538.          -3.000    
     21      1      6      4     -0.7661           2546.          -3.000    
     22      1      6      5     -0.7661           323.7          -3.000    

     22 RIVER REACHES



                           RECHARGE
 READING ON UNIT   19 WITH FORMAT: (20G15.6)           

 SOLVING FOR HEAD 

    ------------------------------------------------
       NWT REQUIRED            3 OUTER ITERATIONS 
       AND A TOTAL OF          3 INNER ITERATIONS.
    ------------------------------------------------

 OUTPUT CONTROL FOR STRESS PERIOD    2   TIME STEP    1
    SAVE HEAD FOR ALL LAYERS
    SAVE DRAWDOWN FOR ALL LAYERS
    SAVE BUDGET
    PRINT HEAD FOR ALL LAYERS
    PRINT BUDGET
1
              HEAD IN LAYER   1 AT END OF TIME STEP   1 IN STRESS PERIOD    2
  ---------------------------------------------------------------------------

            1           2           3           4           5           6           7           8           9          10
           11          12          13          14          15          16          17          18          19          20
 ........................................................................................................................
   1    0.000       0.000       0.000       0.000       0.000       10.46       10.31       10.75       11.43       11.36    
        10.12       7.249       2.160     -0.1822       5.786       21.50       31.85       37.39       0.000       0.000    
   2    0.000       0.000       0.000       0.000       8.261       7.843       7.050       7.738       9.231       9.512    
        8.643       6.467       2.513     -0.2077       8.359       23.26       33.55       39.45       0.000       0.000    
   3    0.000       0.000       0.000       6.230       5.909       4.004       3.176       3.754       5.172       5.721    
        5.370       4.324       2.724     -0.3258       14.11       26.03       36.99       43.71       0.000       0.000    
   4    0.000       0.000       3.522       3.840       2.677     -0.3142     -9.5714E-02 -0.1377     -0.3002     -0.2580    
      -0.2643     -0.2593       1.318     -0.3251       19.04       32.30       42.04       50.67       0.000       0.000    
   5    0.000       0.000      0.6331      4.0996E-02 -0.4822     -1.0561E-02   4.928       8.244       11.39       12.06    
        9.919      0.1621     -0.2693       1.314       26.07       39.59       53.30       64.37       75.30       0.000    
   6    0.000     -0.4092     -0.4495     -0.2406       2.443       10.72       16.00       19.65       22.27       23.81    
        23.56       21.51       22.92       28.11       40.90       53.35       67.71       72.79       77.75       0.000    
   7    0.000       9.729       11.31       13.16       16.28       21.29       25.69       29.09       31.12       34.11    
        35.72       36.98       39.97       45.52       54.80       65.05       74.09       80.14       0.000       0.000    
   8    0.000       15.94       20.25       22.88       25.90       29.70       33.47       36.82       39.67       42.59    
        45.19       47.97       51.87       57.47       64.94       73.11       80.60       88.69       0.000       0.000    
   9    0.000       0.000       28.00       29.67       32.24       35.44       38.85       42.15       45.29       48.40    
        51.55       55.04       59.39       64.91       71.60       78.93       86.38       94.35       102.2       107.1    
  10    0.000       0.000       31.75       33.10       35.41       38.35       41.58       44.85       48.08       51.32    
        54.71       58.49       63.01       68.49       74.89       81.88       89.10       96.34       102.7       106.4    

 HEAD WILL BE SAVED ON UNIT   51 AT END OF TIME STEP    1, STRESS PERIOD    2

 DRAWDOWN WILL BE SAVED ON UNIT   52 AT END OF TIME STEP    1, STRESS PERIOD    2
1
  VOLUMETRIC BUDGET FOR ENTIRE MODEL AT END OF TIME STEP    1, STRESS PERIOD   2
  ------------------------------------------------------------------------------

     CUMULATIVE VOLUMES      L**3       RATES FOR THIS TIME STEP      L**3/T
     ------------------                 ------------------------

           IN:                                      IN:
           ---                                      ---
             STORAGE =        5417.2266               STORAGE =        5417.2266
       CONSTANT HEAD =           0.0000         CONSTANT HEAD =           0.0000
               WELLS =           0.0000                 WELLS =           0.0000
       RIVER LEAKAGE =           0.0000         RIVER LEAKAGE =           0.0000
            RECHARGE =       57192.5273              RECHARGE =       33296.1602

            TOTAL IN =       62609.7539              TOTAL IN =       38713.3867

          OUT:                                     OUT:
          ----                                     ----
             STORAGE =        8179.3672               STORAGE =        8179.3672
       CONSTANT HEAD =           0.0000         CONSTANT HEAD =           0.0000
               WELLS =        1018.8973                 WELLS =         509.4487
       RIVER LEAKAGE =       53412.1641         RIVER LEAKAGE =       30025.2441
            RECHARGE =           0.0000              RECHARGE =           0.0000

           TOTAL OUT =       62610.4297             TOTAL OUT =       38714.0586

            IN - OUT =          -0.6758              IN - OUT =          -0.6719

 PERCENT DISCREPANCY =          -0.00     PERCENT DISCREPANCY =          -0.00






         TIME SUMMARY AT END OF TIME STEP    1 IN STRESS PERIOD    2
                    SECONDS     MINUTES      HOURS       DAYS        YEARS
                    -----------------------------------------------------------
   TIME STEP LENGTH  86400.      1440.0      24.000      1.0000     2.73785E-03
 STRESS PERIOD TIME  86400.      1440.0      24.000      1.0000     2.73785E-03
         TOTAL TIME 1.72800E+05  2880.0      48.000      2.0000     5.47570E-03
1

 SOLVING FOR HEAD 

    ------------------------------------------------
       NWT REQUIRED            3 OUTER ITERATIONS 
       AND A TOTAL OF          3 INNER ITERATIONS.
    ------------------------------------------------

 OUTPUT CONTROL FOR STRESS PERIOD    2   TIME STEP    2
    SAVE HEAD FOR ALL LAYERS
    SAVE DRAWDOWN FOR ALL LAYERS
    SAVE BUDGET
    PRINT HEAD FOR ALL LAYERS
    PRINT BUDGET
1
              HEAD IN LAYER   1 AT END OF TIME STEP   2 IN STRESS PERIOD    2
  ---------------------------------------------------------------------------

            1           2           3           4           5           6           7           8           9          10
           11          12          13          14          15          16          17          18          19          20
 ........................................................................................................................
   1    0.000       0.000       0.000       0.000       0.000       10.46       10.31       10.75       11.43       11.37    
        10.12       7.251       2.161     -0.1827       5.788       21.50       31.85       37.39       0.000       0.000    
   2    0.000       0.000       0.000       0.000       8.263       7.844       7.051       7.740       9.233       9.513    
        8.645       6.469       2.515     -0.2084       8.361       23.26       33.55       39.45       0.000       0.000    
   3    0.000       0.000       0.000       6.232       5.911       4.005       3.177       3.756       5.173       5.723    
        5.372       4.326       2.726     -0.3270       14.11       26.03       36.99       43.71       0.000       0.000    
   4    0.000       0.000       3.523       3.841       2.678     -0.3150     -9.6260E-02 -0.1385     -0.3014     -0.2591    
      -0.2652     -0.2596       1.320     -0.3266       19.04       32.30       42.04       50.67       0.000       0.000    
   5    0.000       0.000      0.6340      4.0859E-02 -0.4835     -1.1011E-02   4.930       8.246       11.39       12.07    
        9.921      0.1576     -0.2709       1.311       26.07       39.60       53.30       64.37       75.30       0.000    
   6    0.000     -0.4104     -0.4514     -0.2416       2.443       10.72       16.00       19.66       22.27       23.82    
        23.56       21.51       22.93       28.11       40.91       53.35       67.71       72.80       77.75       0.000    
   7    0.000       9.731       11.31       13.16       16.29       21.29       25.69       29.09       31.12       34.11    
        35.73       36.98       39.97       45.52       54.80       65.05       74.09       80.14       0.000       0.000    
   8    0.000       15.94       20.25       22.88       25.90       29.70       33.47       36.82       39.68       42.59    
        45.19       47.97       51.87       57.47       64.94       73.11       80.60       88.69       0.000       0.000    
   9    0.000       0.000       28.00       29.67       32.24       35.45       38.85       42.15       45.29       48.41    
        51.55       55.04       59.39       64.91       71.60       78.93       86.38       94.35       102.2       107.1    
  10    0.000       0.000       31.75       33.10       35.41       38.35       41.58       44.85       48.08       51.32    
        54.71       58.49       63.01       68.49       74.89       81.88       89.10       96.34       102.7       106.4    

 HEAD WILL BE SAVED ON UNIT   51 AT END OF TIME STEP    2, STRESS PERIOD    2

 DRAWDOWN WILL BE SAVED ON UNIT   52 AT END OF TIME STEP    2, STRESS PERIOD    2
1
  VOLUMETRIC BUDGET FOR ENTIRE MODEL AT END OF TIME STEP    2, STRESS PERIOD   2
  ------------------------------------------------------------------------------

     CUMULATIVE VOLUMES      L**3       RATES FOR THIS TIME STEP      L**3/T
     ------------------                 ------------------------

           IN:                                      IN:
           ---                                      ---
             STORAGE =       10761.8975               STORAGE =        5344.6709
       CONSTANT HEAD =           0.0000         CONSTANT HEAD =           0.0000
               WELLS =           0.0000                 WELLS =           0.0000
       RIVER LEAKAGE =           0.0000         RIVER LEAKAGE =           0.0000
            RECHARGE =       90488.6875              RECHARGE =       33296.1602

            TOTAL IN =      101250.5859              TOTAL IN =       38640.8320

          OUT:                                     OUT:
          ----                                     ----
             STORAGE =       16351.6172               STORAGE =        8172.2500
       CONSTANT HEAD =           0.0000         CONSTANT HEAD =           0.0000
               WELLS =        1528.3459                 WELLS =         509.4487
       RIVER LEAKAGE =       83371.9844         RIVER LEAKAGE =       29959.8203
            RECHARGE =           0.0000              RECHARGE =           0.0000

           TOTAL OUT =      101251.9453             TOTAL OUT =       38641.5195

            IN - OUT =          -1.3594              IN - OUT =          -0.6875

 PERCENT DISCREPANCY =          -0.00     PERCENT DISCREPANCY =          -0.00






         TIME SUMMARY AT END OF TIME STEP    2 IN STRESS PERIOD    2
                    SECONDS     MINUTES      HOURS       DAYS        YEARS
                    -----------------------------------------------------------
   TIME STEP LENGTH  86400.      1440.0      24.000      1.0000     2.73785E-03
 STRESS PERIOD TIME 1.72800E+05  2880.0      48.000      2.0000     5.47570E-03
         TOTAL TIME 2.59200E+05  4320.0      72.000      3.0000     8.21355E-03
1

 SOLVING FOR HEAD 

    ------------------------------------------------
       NWT REQUIRED            3 OUTER ITERATIONS 
       AND A TOTAL OF          3 INNER ITERATIONS.
    ------------------------------------------------

 OUTPUT CONTROL FOR STRESS PERIOD    2   TIME STEP    3
    SAVE HEAD FOR ALL LAYERS
    SAVE DRAWDOWN FOR ALL LAYERS
    SAVE BUDGET
    PRINT HEAD FOR ALL LAYERS
    PRINT BUDGET
1
              HEAD IN LAYER   1 AT END OF TIME STEP   3 IN STRESS PERIOD    2
  ---------------------------------------------------------------------------

            1           2           3           4           5           6           7           8           9          10
           11          12          13          14          15          16          17          18          19          20
 ........................................................................................................................
   1    0.000       0.000       0.000       0.000       0.000       10.46       10.31       10.75       11.43       11.37    
        10.12       7.252       2.163     -0.1831       5.789       21.51       31.86       37.40       0.000       0.000    
   2    0.000       0.000       0.000       0.000       8.264       7.846       7.053       7.741       9.234       9.515    
        8.646       6.470       2.516     -0.2091       8.362       23.26       33.55       39.45       0.000       0.000    
   3    0.000       0.000       0.000       6.234       5.913       4.007       3.179       3.757       5.175       5.725    
        5.373       4.328       2.727     -0.3281       14.11       26.03       36.99       43.71       0.000       0.000    
   4    0.000       0.000       3.525       3.843       2.680     -0.3158     -9.6801E-02 -0.1393     -0.3026     -0.2601    
      -0.2662     -0.2600       1.321     -0.3280       19.04       32.30       42.04       50.67       0.000       0.000    
   5    0.000       0.000      0.6350      4.0725E-02 -0.4848     -1.1458E-02   4.931       8.247       11.39       12.07    
        9.922      0.1534     -0.2725       1.309       26.07       39.60       53.31       64.37       75.30       0.000    
   6    0.000     -0.4116     -0.4533     -0.2426       2.444       10.72       16.01       19.66       22.27       23.82    
        23.56       21.52       22.93       28.12       40.91       53.36       67.71       72.80       77.75       0.000    
   7    0.000       9.732       11.32       13.17       16.29       21.30       25.70       29.09       31.12       34.11    
        35.73       36.98       39.97       45.52       54.80       65.05       74.09       80.14       0.000       0.000    
   8    0.000       15.94       20.25       22.88       25.91       29.70       33.47       36.82       39.68       42.60    
        45.20       47.97       51.88       57.47       64.94       73.11       80.61       88.70       0.000       0.000    
   9    0.000       0.000       28.00       29.67       32.24       35.45       38.85       42.16       45.29       48.41    
        51.55       55.05       59.39       64.91       71.60       78.94       86.38       94.35       102.2       107.1    
  10    0.000       0.000       31.75       33.11       35.41       38.35       41.58       44.86       48.08       51.33    
        54.71       58.49       63.02       68.49       74.89       81.88       89.11       96.34       102.7       106.4    

 HEAD WILL BE SAVED ON UNIT   51 AT END OF TIME STEP    3, STRESS PERIOD    2

 DRAWDOWN WILL BE SAVED ON UNIT   52 AT END OF TIME STEP    3, STRESS PERIOD    2
1
  VOLUMETRIC BUDGET FOR ENTIRE MODEL AT END OF TIME STEP    3, STRESS PERIOD   2
  ------------------------------------------------------------------------------

     CUMULATIVE VOLUMES      L**3       RATES FOR THIS TIME STEP      L**3/T
     ------------------                 ------------------------

           IN:                                      IN:
           ---                                      ---
             STORAGE =       16035.3770               STORAGE =        5273.4790
       CONSTANT HEAD =           0.0000         CONSTANT HEAD =           0.0000
               WELLS =           0.0000                 WELLS =           0.0000
       RIVER LEAKAGE =           0.0000         RIVER LEAKAGE =           0.0000
            RECHARGE =      123784.8438              RECHARGE =       33296.1602

            TOTAL IN =      139820.2188              TOTAL IN =       38569.6406

          OUT:                                     OUT:
          ----                                     ----
             STORAGE =       24516.8281               STORAGE =        8165.2119
       CONSTANT HEAD =           0.0000         CONSTANT HEAD =           0.0000
               WELLS =        2037.7947                 WELLS =         509.4487
       RIVER LEAKAGE =      113267.6719         RIVER LEAKAGE =       29895.6836
            RECHARGE =           0.0000              RECHARGE =           0.0000

           TOTAL OUT =      139822.2969             TOTAL OUT =       38570.3438

            IN - OUT =          -2.0781              IN - OUT =          -0.7031

 PERCENT DISCREPANCY =          -0.00     PERCENT DISCREPANCY =          -0.00






         TIME SUMMARY AT END OF TIME STEP    3 IN STRESS PERIOD    2
                    SECONDS     MINUTES      HOURS       DAYS        YEARS
                    -----------------------------------------------------------
   TIME STEP LENGTH  86400.      1440.0      24.000      1.0000     2.73785E-03
 STRESS PERIOD TIME 2.59200E+05  4320.0      72.000      3.0000     8.21355E-03
         TOTAL TIME 3.45600E+05  5760.0      96.000      4.0000     1.09514E-02
1

 SOLVING FOR HEAD 

    ------------------------------------------------
       NWT REQUIRED            3 OUTER ITERATIONS 
       AND A TOTAL OF          3 INNER ITERATIONS.
    ------------------------------------------------

 OUTPUT CONTROL FOR STRESS PERIOD    2   TIME STEP    4
    SAVE HEAD FOR ALL LAYERS
    SAVE DRAWDOWN FOR ALL LAYERS
    SAVE BUDGET
    PRINT HEAD FOR ALL LAYERS
    PRINT BUDGET
1
              HEAD IN LAYER   1 AT END OF TIME STEP   4 IN STRESS PERIOD    2
  ---------------------------------------------------------------------------

            1           2           3           4           5           6           7           8           9          10
           11          12          13          14          15          16          17          18          19          20
 ........................................................................................................................
   1    0.000       0.000       0.000       0.000       0.000       10.46       10.31       10.75       11.43       11.37    
        10.12       7.254       2.164     -0.1836       5.791       21.51       31.86       37.40       0.000       0.000    
   2    0.000       0.000       0.000       0.000       8.266       7.848       7.054       7.743       9.236       9.516    
        8.648       6.472       2.518     -0.2097       8.364       23.26       33.55       39.45       0.000       0.000    
   3    0.000       0.000       0.000       6.235       5.914       4.008       3.180       3.759       5.176       5.726    
        5.375       4.329       2.729     -0.3292       14.11       26.03       37.00       43.71       0.000       0.000    
   4    0.000       0.000       3.526       3.844       2.681     -0.3165     -9.7339E-02 -0.1400     -0.3038     -0.2612    
      -0.2671     -0.2603       1.323     -0.3295       19.04       32.31       42.05       50.68       0.000       0.000    
   5    0.000       0.000      0.6359      4.0593E-02 -0.4861     -1.1902E-02   4.933       8.249       11.40       12.07    
        9.924      0.1494     -0.2741       1.307       26.07       39.60       53.31       64.38       75.30       0.000    
   6    0.000     -0.4128     -0.4551     -0.2435       2.444       10.72       16.01       19.66       22.27       23.82    
        23.57       21.52       22.93       28.12       40.91       53.36       67.71       72.80       77.75       0.000    
   7    0.000       9.734       11.32       13.17       16.29       21.30       25.70       29.09       31.12       34.11    
        35.73       36.98       39.97       45.52       54.80       65.05       74.09       80.15       0.000       0.000    
   8    0.000       15.94       20.25       22.89       25.91       29.70       33.47       36.83       39.68       42.60    
        45.20       47.97       51.88       57.47       64.94       73.11       80.61       88.70       0.000       0.000    
   9    0.000       0.000       28.00       29.68       32.24       35.45       38.85       42.16       45.29       48.41    
        51.55       55.05       59.39       64.91       71.60       78.94       86.38       94.35       102.2       107.1    
  10    0.000       0.000       31.76       33.11       35.42       38.36       41.59       44.86       48.08       51.33    
        54.71       58.49       63.02       68.49       74.89       81.88       89.11       96.34       102.7       106.4    

 HEAD WILL BE SAVED ON UNIT   51 AT END OF TIME STEP    4, STRESS PERIOD    2

 DRAWDOWN WILL BE SAVED ON UNIT   52 AT END OF TIME STEP    4, STRESS PERIOD    2
1
  VOLUMETRIC BUDGET FOR ENTIRE MODEL AT END OF TIME STEP    4, STRESS PERIOD   2
  ------------------------------------------------------------------------------

     CUMULATIVE VOLUMES      L**3       RATES FOR THIS TIME STEP      L**3/T
     ------------------                 ------------------------

           IN:                                      IN:
           ---                                      ---
             STORAGE =       21238.9844               STORAGE =        5203.6084
       CONSTANT HEAD =           0.0000         CONSTANT HEAD =           0.0000
               WELLS =           0.0000                 WELLS =           0.0000
       RIVER LEAKAGE =           0.0000         RIVER LEAKAGE =           0.0000
            RECHARGE =      157081.0000              RECHARGE =       33296.1602

            TOTAL IN =      178319.9844              TOTAL IN =       38499.7695

          OUT:                                     OUT:
          ----                                     ----
             STORAGE =       32675.0781               STORAGE =        8158.2500
       CONSTANT HEAD =           0.0000         CONSTANT HEAD =           0.0000
               WELLS =        2547.2434                 WELLS =         509.4487
       RIVER LEAKAGE =      143100.4688         RIVER LEAKAGE =       29832.7910
            RECHARGE =           0.0000              RECHARGE =           0.0000

           TOTAL OUT =      178322.7812             TOTAL OUT =       38500.4883

            IN - OUT =          -2.7969              IN - OUT =          -0.7188

 PERCENT DISCREPANCY =          -0.00     PERCENT DISCREPANCY =          -0.00






         TIME SUMMARY AT END OF TIME STEP    4 IN STRESS PERIOD    2
                    SECONDS     MINUTES      HOURS       DAYS        YEARS
                    -----------------------------------------------------------
   TIME STEP LENGTH  86400.      1440.0      24.000      1.0000     2.73785E-03
 STRESS PERIOD TIME 3.45600E+05  5760.0      96.000      4.0000     1.09514E-02
         TOTAL TIME 4.32000E+05  7200.0      120.00      5.0000     1.36893E-02
1

 SOLVING FOR HEAD 

    ------------------------------------------------
       NWT REQUIRED            3 OUTER ITERATIONS 
       AND A TOTAL OF          3 INNER ITERATIONS.
    ------------------------------------------------

 OUTPUT CONTROL FOR STRESS PERIOD    2   TIME STEP    5
    SAVE HEAD FOR ALL LAYERS
    SAVE DRAWDOWN FOR ALL LAYERS
    SAVE BUDGET
    PRINT HEAD FOR ALL LAYERS
    PRINT BUDGET
1
              HEAD IN LAYER   1 AT END OF TIME STEP   5 IN STRESS PERIOD    2
  ---------------------------------------------------------------------------

            1           2           3           4           5           6           7           8           9          10
           11          12          13          14          15          16          17          18          19          20
 ........................................................................................................................
   1    0.000       0.000       0.000       0.000       0.000       10.46       10.32       10.75       11.44       11.37    
        10.12       7.255       2.166     -0.1841       5.792       21.51       31.86       37.40       0.000       0.000    
   2    0.000       0.000       0.000       0.000       8.267       7.849       7.056       7.744       9.237       9.518    
        8.650       6.473       2.519     -0.2104       8.365       23.26       33.55       39.46       0.000       0.000    
   3    0.000       0.000       0.000       6.237       5.916       4.010       3.182       3.760       5.178       5.728    
        5.376       4.331       2.730     -0.3304       14.12       26.03       37.00       43.72       0.000       0.000    
   4    0.000       0.000       3.528       3.846       2.683     -0.3173     -9.7872E-02 -0.1408     -0.3049     -0.2622    
      -0.2680     -0.2607       1.324     -0.3309       19.05       32.31       42.05       50.68       0.000       0.000    
   5    0.000       0.000      0.6368      4.0465E-02 -0.4873     -1.2343E-02   4.934       8.250       11.40       12.07    
        9.925      0.1456     -0.2757       1.305       26.07       39.60       53.31       64.38       75.30       0.000    
   6    0.000     -0.4140     -0.4569     -0.2445       2.444       10.72       16.01       19.66       22.27       23.82    
        23.57       21.52       22.93       28.12       40.91       53.36       67.72       72.80       77.76       0.000    
   7    0.000       9.735       11.32       13.17       16.29       21.30       25.70       29.09       31.12       34.12    
        35.73       36.98       39.98       45.52       54.80       65.05       74.10       80.15       0.000       0.000    
   8    0.000       15.95       20.25       22.89       25.91       29.70       33.47       36.83       39.68       42.60    
        45.20       47.98       51.88       57.47       64.94       73.11       80.61       88.70       0.000       0.000    
   9    0.000       0.000       28.00       29.68       32.25       35.45       38.85       42.16       45.29       48.41    
        51.55       55.05       59.39       64.91       71.61       78.94       86.38       94.35       102.2       107.1    
  10    0.000       0.000       31.76       33.11       35.42       38.36       41.59       44.86       48.08       51.33    
        54.71       58.50       63.02       68.50       74.89       81.89       89.11       96.35       102.7       106.4    

 HEAD WILL BE SAVED ON UNIT   51 AT END OF TIME STEP    5, STRESS PERIOD    2

 DRAWDOWN WILL BE SAVED ON UNIT   52 AT END OF TIME STEP    5, STRESS PERIOD    2
1
  VOLUMETRIC BUDGET FOR ENTIRE MODEL AT END OF TIME STEP    5, STRESS PERIOD   2
  ------------------------------------------------------------------------------

     CUMULATIVE VOLUMES      L**3       RATES FOR THIS TIME STEP      L**3/T
     ------------------                 ------------------------

           IN:                                      IN:
           ---                                      ---
             STORAGE =       26374.0039               STORAGE =        5135.0200
       CONSTANT HEAD =           0.0000         CONSTANT HEAD =           0.0000
               WELLS =           0.0000                 WELLS =           0.0000
       RIVER LEAKAGE =           0.0000         RIVER LEAKAGE =           0.0000
            RECHARGE =      190377.1562              RECHARGE =       33296.1602

            TOTAL IN =      216751.1562              TOTAL IN =       38431.1797

          OUT:                                     OUT:
          ----                                     ----
             STORAGE =       40826.4414               STORAGE =        8151.3618
       CONSTANT HEAD =           0.0000         CONSTANT HEAD =           0.0000
               WELLS =        3056.6921                 WELLS =         509.4487
       RIVER LEAKAGE =      172871.5781         RIVER LEAKAGE =       29771.1074
            RECHARGE =           0.0000              RECHARGE =           0.0000

           TOTAL OUT =      216754.7188             TOTAL OUT =       38431.9180

            IN - OUT =          -3.5625              IN - OUT =          -0.7383

 PERCENT DISCREPANCY =          -0.00     PERCENT DISCREPANCY =          -0.00






         TIME SUMMARY AT END OF TIME STEP    5 IN STRESS PERIOD    2
                    SECONDS     MINUTES      HOURS       DAYS        YEARS
                    -----------------------------------------------------------
   TIME STEP LENGTH  86400.      1440.0      24.000      1.0000     2.73785E-03
 STRESS PERIOD TIME 4.32000E+05  7200.0      120.00      5.0000     1.36893E-02
         TOTAL TIME 5.18400E+05  8640.0      144.00      6.0000     1.64271E-02
1

 SOLVING FOR HEAD 

    ------------------------------------------------
       NWT REQUIRED            3 OUTER ITERATIONS 
       AND A TOTAL OF          3 INNER ITERATIONS.
    ------------------------------------------------

 OUTPUT CONTROL FOR STRESS PERIOD    2   TIME STEP    6
    SAVE HEAD FOR ALL LAYERS
    SAVE DRAWDOWN FOR ALL LAYERS
    SAVE BUDGET
    PRINT HEAD FOR ALL LAYERS
    PRINT BUDGET
1
              HEAD IN LAYER   1 AT END OF TIME STEP   6 IN STRESS PERIOD    2
  ---------------------------------------------------------------------------

            1           2           3           4           5           6           7           8           9          10
           11          12          13          14          15          16          17          18          19          20
 ........................................................................................................................
   1    0.000       0.000       0.000       0.000       0.000       10.46       10.32       10.75       11.44       11.37    
        10.13       7.257       2.167     -0.1845       5.794       21.51       31.86       37.40       0.000       0.000    
   2    0.000       0.000       0.000       0.000       8.269       7.851       7.057       7.746       9.239       9.520    
        8.651       6.475       2.521     -0.2111       8.367       23.27       33.56       39.46       0.000       0.000    
   3    0.000       0.000       0.000       6.238       5.917       4.011       3.183       3.762       5.180       5.729    
        5.378       4.332       2.732     -0.3315       14.12       26.04       37.00       43.72       0.000       0.000    
   4    0.000       0.000       3.529       3.847       2.684     -0.3181     -9.8401E-02 -0.1415     -0.3060     -0.2633    
      -0.2689     -0.2611       1.326     -0.3323       19.05       32.31       42.05       50.68       0.000       0.000    
   5    0.000       0.000      0.6378      4.0339E-02 -0.4886     -1.2782E-02   4.936       8.252       11.40       12.07    
        9.927      0.1420     -0.2772       1.302       26.07       39.60       53.31       64.38       75.30       0.000    
   6    0.000     -0.4152     -0.4586     -0.2454       2.445       10.72       16.01       19.66       22.27       23.82    
        23.57       21.52       22.93       28.12       40.91       53.36       67.72       72.80       77.76       0.000    
   7    0.000       9.737       11.32       13.17       16.29       21.30       25.70       29.10       31.13       34.12    
        35.73       36.98       39.98       45.53       54.81       65.05       74.10       80.15       0.000       0.000    
   8    0.000       15.95       20.25       22.89       25.91       29.70       33.47       36.83       39.68       42.60    
        45.20       47.98       51.88       57.48       64.94       73.12       80.61       88.70       0.000       0.000    
   9    0.000       0.000       28.01       29.68       32.25       35.45       38.85       42.16       45.29       48.41    
        51.56       55.05       59.39       64.92       71.61       78.94       86.38       94.35       102.2       107.1    
  10    0.000       0.000       31.76       33.11       35.42       38.36       41.59       44.86       48.09       51.33    
        54.71       58.50       63.02       68.50       74.89       81.89       89.11       96.35       102.7       106.4    

 HEAD WILL BE SAVED ON UNIT   51 AT END OF TIME STEP    6, STRESS PERIOD    2

 DRAWDOWN WILL BE SAVED ON UNIT   52 AT END OF TIME STEP    6, STRESS PERIOD    2
1
  VOLUMETRIC BUDGET FOR ENTIRE MODEL AT END OF TIME STEP    6, STRESS PERIOD   2
  ------------------------------------------------------------------------------

     CUMULATIVE VOLUMES      L**3       RATES FOR THIS TIME STEP      L**3/T
     ------------------                 ------------------------

           IN:                                      IN:
           ---                                      ---
             STORAGE =       31441.6797               STORAGE =        5067.6748
       CONSTANT HEAD =           0.0000         CONSTANT HEAD =           0.0000
               WELLS =           0.0000                 WELLS =           0.0000
       RIVER LEAKAGE =           0.0000         RIVER LEAKAGE =           0.0000
            RECHARGE =      223673.3125              RECHARGE =       33296.1602

            TOTAL IN =      255115.0000              TOTAL IN =       38363.8359

          OUT:                                     OUT:
          ----                                     ----
             STORAGE =       48970.9883               STORAGE =        8144.5454
       CONSTANT HEAD =           0.0000         CONSTANT HEAD =           0.0000
               WELLS =        3566.1409                 WELLS =         509.4487
       RIVER LEAKAGE =      202582.1719         RIVER LEAKAGE =       29710.5938
            RECHARGE =           0.0000              RECHARGE =           0.0000

           TOTAL OUT =      255119.2969             TOTAL OUT =       38364.5859

            IN - OUT =          -4.2969              IN - OUT =          -0.7500

 PERCENT DISCREPANCY =          -0.00     PERCENT DISCREPANCY =          -0.00






         TIME SUMMARY AT END OF TIME STEP    6 IN STRESS PERIOD    2
                    SECONDS     MINUTES      HOURS       DAYS        YEARS
                    -----------------------------------------------------------
   TIME STEP LENGTH  86400.      1440.0      24.000      1.0000     2.73785E-03
 STRESS PERIOD TIME 5.18400E+05  8640.0      144.00      6.0000     1.64271E-02
         TOTAL TIME 6.04800E+05  10080.      168.00      7.0000     1.91650E-02
1

 SOLVING FOR HEAD 

    ------------------------------------------------
       NWT REQUIRED            3 OUTER ITERATIONS 
       AND A TOTAL OF          3 INNER ITERATIONS.
    ------------------------------------------------

 OUTPUT CONTROL FOR STRESS PERIOD    2   TIME STEP    7
    SAVE HEAD FOR ALL LAYERS
    SAVE DRAWDOWN FOR ALL LAYERS
    SAVE BUDGET
    PRINT HEAD FOR ALL LAYERS
    PRINT BUDGET
1
              HEAD IN LAYER   1 AT END OF TIME STEP   7 IN STRESS PERIOD    2
  ---------------------------------------------------------------------------

            1           2           3           4           5           6           7           8           9          10
           11          12          13          14          15          16          17          18          19          20
 ........................................................................................................................
   1    0.000       0.000       0.000       0.000       0.000       10.46       10.32       10.76       11.44       11.37    
        10.13       7.258       2.169     -0.1850       5.795       21.51       31.86       37.40       0.000       0.000    
   2    0.000       0.000       0.000       0.000       8.270       7.852       7.059       7.747       9.240       9.521    
        8.653       6.476       2.522     -0.2117       8.368       23.27       33.56       39.46       0.000       0.000    
   3    0.000       0.000       0.000       6.240       5.919       4.013       3.184       3.763       5.181       5.731    
        5.379       4.334       2.733     -0.3325       14.12       26.04       37.00       43.72       0.000       0.000    
   4    0.000       0.000       3.531       3.849       2.686     -0.3188     -9.8926E-02 -0.1423     -0.3071     -0.2643    
      -0.2698     -0.2614       1.327     -0.3336       19.05       32.31       42.05       50.68       0.000       0.000    
   5    0.000       0.000      0.6387      4.0216E-02 -0.4898     -1.3217E-02   4.937       8.253       11.40       12.07    
        9.928      0.1386     -0.2788       1.300       26.08       39.60       53.31       64.38       75.30       0.000    
   6    0.000     -0.4163     -0.4603     -0.2463       2.445       10.73       16.01       19.66       22.28       23.82    
        23.57       21.52       22.93       28.12       40.91       53.36       67.72       72.80       77.76       0.000    
   7    0.000       9.738       11.32       13.17       16.29       21.30       25.70       29.10       31.13       34.12    
        35.73       36.99       39.98       45.53       54.81       65.06       74.10       80.15       0.000       0.000    
   8    0.000       15.95       20.26       22.89       25.91       29.71       33.48       36.83       39.68       42.60    
        45.20       47.98       51.88       57.48       64.95       73.12       80.61       88.70       0.000       0.000    
   9    0.000       0.000       28.01       29.68       32.25       35.45       38.85       42.16       45.30       48.41    
        51.56       55.05       59.40       64.92       71.61       78.94       86.39       94.36       102.2       107.1    
  10    0.000       0.000       31.76       33.11       35.42       38.36       41.59       44.86       48.09       51.33    
        54.72       58.50       63.02       68.50       74.90       81.89       89.11       96.35       102.7       106.4    

 HEAD WILL BE SAVED ON UNIT   51 AT END OF TIME STEP    7, STRESS PERIOD    2

 DRAWDOWN WILL BE SAVED ON UNIT   52 AT END OF TIME STEP    7, STRESS PERIOD    2
1
  VOLUMETRIC BUDGET FOR ENTIRE MODEL AT END OF TIME STEP    7, STRESS PERIOD   2
  ------------------------------------------------------------------------------

     CUMULATIVE VOLUMES      L**3       RATES FOR THIS TIME STEP      L**3/T
     ------------------                 ------------------------

           IN:                                      IN:
           ---                                      ---
             STORAGE =       36443.2148               STORAGE =        5001.5366
       CONSTANT HEAD =           0.0000         CONSTANT HEAD =           0.0000
               WELLS =           0.0000                 WELLS =           0.0000
       RIVER LEAKAGE =           0.0000         RIVER LEAKAGE =           0.0000
            RECHARGE =      256969.4688              RECHARGE =       33296.1602

            TOTAL IN =      293412.6875              TOTAL IN =       38297.6953

          OUT:                                     OUT:
          ----                                     ----
             STORAGE =       57108.7891               STORAGE =        8137.7993
       CONSTANT HEAD =           0.0000         CONSTANT HEAD =           0.0000
               WELLS =        4075.5896                 WELLS =         509.4487
       RIVER LEAKAGE =      232233.3906         RIVER LEAKAGE =       29651.2168
            RECHARGE =           0.0000              RECHARGE =           0.0000

           TOTAL OUT =      293417.7812             TOTAL OUT =       38298.4648

            IN - OUT =          -5.0938              IN - OUT =          -0.7695

 PERCENT DISCREPANCY =          -0.00     PERCENT DISCREPANCY =          -0.00






         TIME SUMMARY AT END OF TIME STEP    7 IN STRESS PERIOD    2
                    SECONDS     MINUTES      HOURS       DAYS        YEARS
                    -----------------------------------------------------------
   TIME STEP LENGTH  86400.      1440.0      24.000      1.0000     2.73785E-03
 STRESS PERIOD TIME 6.04800E+05  10080.      168.00      7.0000     1.91650E-02
         TOTAL TIME 6.91200E+05  11520.      192.00      8.0000     2.19028E-02
1

 SOLVING FOR HEAD 

    ------------------------------------------------
       NWT REQUIRED            3 OUTER ITERATIONS 
       AND A TOTAL OF          3 INNER ITERATIONS.
    ------------------------------------------------

 OUTPUT CONTROL FOR STRESS PERIOD    2   TIME STEP    8
    SAVE HEAD FOR ALL LAYERS
    SAVE DRAWDOWN FOR ALL LAYERS
    SAVE BUDGET
    PRINT HEAD FOR ALL LAYERS
    PRINT BUDGET
1
              HEAD IN LAYER   1 AT END OF TIME STEP   8 IN STRESS PERIOD    2
  ---------------------------------------------------------------------------

            1           2           3           4           5           6           7           8           9          10
           11          12          13          14          15          16          17          18          19          20
 ........................................................................................................................
   1    0.000       0.000       0.000       0.000       0.000       10.47       10.32       10.76       11.44       11.37    
        10.13       7.260       2.170     -0.1855       5.797       21.51       31.86       37.40       0.000       0.000    
   2    0.000       0.000       0.000       0.000       8.272       7.854       7.061       7.749       9.242       9.523    
        8.654       6.478       2.524     -0.2124       8.370       23.27       33.56       39.46       0.000       0.000    
   3    0.000       0.000       0.000       6.241       5.920       4.014       3.186       3.765       5.183       5.732    
        5.381       4.335       2.735     -0.3336       14.12       26.04       37.00       43.72       0.000       0.000    
   4    0.000       0.000       3.532       3.851       2.687     -0.3196     -9.9448E-02 -0.1430     -0.3082     -0.2653    
      -0.2707     -0.2618       1.329     -0.3350       19.05       32.31       42.05       50.68       0.000       0.000    
   5    0.000       0.000      0.6396      4.0096E-02 -0.4910     -1.3650E-02   4.939       8.255       11.40       12.07    
        9.930      0.1354     -0.2802       1.298       26.08       39.60       53.31       64.38       75.31       0.000    
   6    0.000     -0.4174     -0.4620     -0.2472       2.446       10.73       16.01       19.66       22.28       23.83    
        23.57       21.52       22.94       28.12       40.91       53.36       67.72       72.81       77.76       0.000    
   7    0.000       9.740       11.32       13.17       16.29       21.30       25.70       29.10       31.13       34.12    
        35.73       36.99       39.98       45.53       54.81       65.06       74.10       80.15       0.000       0.000    
   8    0.000       15.95       20.26       22.89       25.91       29.71       33.48       36.83       39.68       42.60    
        45.20       47.98       51.88       57.48       64.95       73.12       80.61       88.70       0.000       0.000    
   9    0.000       0.000       28.01       29.68       32.25       35.45       38.86       42.16       45.30       48.42    
        51.56       55.05       59.40       64.92       71.61       78.94       86.39       94.36       102.2       107.1    
  10    0.000       0.000       31.76       33.11       35.42       38.36       41.59       44.86       48.09       51.33    
        54.72       58.50       63.02       68.50       74.90       81.89       89.11       96.35       102.7       106.4    

 HEAD WILL BE SAVED ON UNIT   51 AT END OF TIME STEP    8, STRESS PERIOD    2

 DRAWDOWN WILL BE SAVED ON UNIT   52 AT END OF TIME STEP    8, STRESS PERIOD    2
1
  VOLUMETRIC BUDGET FOR ENTIRE MODEL AT END OF TIME STEP    8, STRESS PERIOD   2
  ------------------------------------------------------------------------------

     CUMULATIVE VOLUMES      L**3       RATES FOR THIS TIME STEP      L**3/T
     ------------------                 ------------------------

           IN:                                      IN:
           ---                                      ---
             STORAGE =       41379.7852               STORAGE =        4936.5703
       CONSTANT HEAD =           0.0000         CONSTANT HEAD =           0.0000
               WELLS =           0.0000                 WELLS =           0.0000
       RIVER LEAKAGE =           0.0000         RIVER LEAKAGE =           0.0000
            RECHARGE =      290265.6250              RECHARGE =       33296.1602

            TOTAL IN =      331645.4062              TOTAL IN =       38232.7305

          OUT:                                     OUT:
          ----                                     ----
             STORAGE =       65239.9102               STORAGE =        8131.1216
       CONSTANT HEAD =           0.0000         CONSTANT HEAD =           0.0000
               WELLS =        4585.0381                 WELLS =         509.4487
       RIVER LEAKAGE =      261826.3281         RIVER LEAKAGE =       29592.9434
            RECHARGE =           0.0000              RECHARGE =           0.0000

           TOTAL OUT =      331651.2812             TOTAL OUT =       38233.5156

            IN - OUT =          -5.8750              IN - OUT =          -0.7852

 PERCENT DISCREPANCY =          -0.00     PERCENT DISCREPANCY =          -0.00






         TIME SUMMARY AT END OF TIME STEP    8 IN STRESS PERIOD    2
                    SECONDS     MINUTES      HOURS       DAYS        YEARS
                    -----------------------------------------------------------
   TIME STEP LENGTH  86400.      1440.0      24.000      1.0000     2.73785E-03
 STRESS PERIOD TIME 6.91200E+05  11520.      192.00      8.0000     2.19028E-02
         TOTAL TIME 7.77600E+05  12960.      216.00      9.0000     2.46407E-02
1

 SOLVING FOR HEAD 

    ------------------------------------------------
       NWT REQUIRED            3 OUTER ITERATIONS 
       AND A TOTAL OF          3 INNER ITERATIONS.
    ------------------------------------------------

 OUTPUT CONTROL FOR STRESS PERIOD    2   TIME STEP    9
    SAVE HEAD FOR ALL LAYERS
    SAVE DRAWDOWN FOR ALL LAYERS
    SAVE BUDGET
    PRINT HEAD FOR ALL LAYERS
    PRINT BUDGET
1
              HEAD IN LAYER   1 AT END OF TIME STEP   9 IN STRESS PERIOD    2
  ---------------------------------------------------------------------------

            1           2           3           4           5           6           7           8           9          10
           11          12          13          14          15          16          17          18          19          20
 ........................................................................................................................
   1    0.000       0.000       0.000       0.000       0.000       10.47       10.32       10.76       11.44       11.38    
        10.13       7.261       2.172     -0.1859       5.798       21.52       31.87       37.40       0.000       0.000    
   2    0.000       0.000       0.000       0.000       8.273       7.855       7.062       7.750       9.243       9.524    
        8.656       6.480       2.525     -0.2130       8.371       23.27       33.56       39.46       0.000       0.000    
   3    0.000       0.000       0.000       6.243       5.922       4.016       3.187       3.766       5.184       5.734    
        5.382       4.337       2.736     -0.3347       14.12       26.04       37.00       43.72       0.000       0.000    
   4    0.000       0.000       3.534       3.852       2.689     -0.3203     -9.9965E-02 -0.1438     -0.3093     -0.2663    
      -0.2716     -0.2621       1.330     -0.3363       19.05       32.31       42.05       50.68       0.000       0.000    
   5    0.000       0.000      0.6404      3.9979E-02 -0.4922     -1.4080E-02   4.940       8.256       11.40       12.08    
        9.931      0.1324     -0.2817       1.297       26.08       39.61       53.32       64.38       75.31       0.000    
   6    0.000     -0.4185     -0.4637     -0.2481       2.446       10.73       16.01       19.67       22.28       23.83    
        23.57       21.52       22.94       28.12       40.92       53.37       67.72       72.81       77.76       0.000    
   7    0.000       9.741       11.33       13.17       16.30       21.30       25.71       29.10       31.13       34.12    
        35.74       36.99       39.98       45.53       54.81       65.06       74.10       80.15       0.000       0.000    
   8    0.000       15.95       20.26       22.89       25.91       29.71       33.48       36.83       39.69       42.60    
        45.21       47.98       51.88       57.48       64.95       73.12       80.62       88.71       0.000       0.000    
   9    0.000       0.000       28.01       29.68       32.25       35.46       38.86       42.17       45.30       48.42    
        51.56       55.05       59.40       64.92       71.61       78.94       86.39       94.36       102.2       107.1    
  10    0.000       0.000       31.76       33.11       35.42       38.36       41.59       44.86       48.09       51.34    
        54.72       58.50       63.03       68.50       74.90       81.89       89.12       96.35       102.7       106.4    

 HEAD WILL BE SAVED ON UNIT   51 AT END OF TIME STEP    9, STRESS PERIOD    2

 DRAWDOWN WILL BE SAVED ON UNIT   52 AT END OF TIME STEP    9, STRESS PERIOD    2
1
  VOLUMETRIC BUDGET FOR ENTIRE MODEL AT END OF TIME STEP    9, STRESS PERIOD   2
  ------------------------------------------------------------------------------

     CUMULATIVE VOLUMES      L**3       RATES FOR THIS TIME STEP      L**3/T
     ------------------                 ------------------------

           IN:                                      IN:
           ---                                      ---
             STORAGE =       46252.5273               STORAGE =        4872.7427
       CONSTANT HEAD =           0.0000         CONSTANT HEAD =           0.0000
               WELLS =           0.0000                 WELLS =           0.0000
       RIVER LEAKAGE =           0.0000         RIVER LEAKAGE =           0.0000
            RECHARGE =      323561.7812              RECHARGE =       33296.1602

            TOTAL IN =      369814.3125              TOTAL IN =       38168.9023

          OUT:                                     OUT:
          ----                                     ----
             STORAGE =       73364.4219               STORAGE =        8124.5103
       CONSTANT HEAD =           0.0000         CONSTANT HEAD =           0.0000
               WELLS =        5094.4868                 WELLS =         509.4487
       RIVER LEAKAGE =      291362.0625         RIVER LEAKAGE =       29535.7402
            RECHARGE =           0.0000              RECHARGE =           0.0000

           TOTAL OUT =      369820.9688             TOTAL OUT =       38169.6992

            IN - OUT =          -6.6562              IN - OUT =          -0.7969

 PERCENT DISCREPANCY =          -0.00     PERCENT DISCREPANCY =          -0.00






         TIME SUMMARY AT END OF TIME STEP    9 IN STRESS PERIOD    2
                    SECONDS     MINUTES      HOURS       DAYS        YEARS
                    -----------------------------------------------------------
   TIME STEP LENGTH  86400.      1440.0      24.000      1.0000     2.73785E-03
 STRESS PERIOD TIME 7.77600E+05  12960.      216.00      9.0000     2.46407E-02
         TOTAL TIME 8.64000E+05  14400.      240.00      10.000     2.73785E-02
1

 SOLVING FOR HEAD 

    ------------------------------------------------
       NWT REQUIRED            3 OUTER ITERATIONS 
       AND A TOTAL OF          3 INNER ITERATIONS.
    ------------------------------------------------

 OUTPUT CONTROL FOR STRESS PERIOD    2   TIME STEP   10
    SAVE HEAD FOR ALL LAYERS
    SAVE DRAWDOWN FOR ALL LAYERS
    SAVE BUDGET
    PRINT HEAD FOR ALL LAYERS
    PRINT BUDGET
1
              HEAD IN LAYER   1 AT END OF TIME STEP  10 IN STRESS PERIOD    2
  ---------------------------------------------------------------------------

            1           2           3           4           5           6           7           8           9          10
           11          12          13          14          15          16          17          18          19          20
 ........................................................................................................................
   1    0.000       0.000       0.000       0.000       0.000       10.47       10.32       10.76       11.44       11.38    
        10.13       7.263       2.173     -0.1864       5.800       21.52       31.87       37.41       0.000       0.000    
   2    0.000       0.000       0.000       0.000       8.275       7.857       7.064       7.752       9.245       9.526    
        8.657       6.481       2.527     -0.2136       8.373       23.27       33.56       39.46       0.000       0.000    
   3    0.000       0.000       0.000       6.244       5.923       4.017       3.189       3.767       5.186       5.735    
        5.384       4.338       2.738     -0.3357       14.12       26.04       37.00       43.72       0.000       0.000    
   4    0.000       0.000       3.535       3.854       2.690     -0.3210     -0.1005     -0.1445     -0.3104     -0.2672    
      -0.2725     -0.2624       1.332     -0.3376       19.05       32.31       42.06       50.68       0.000       0.000    
   5    0.000       0.000      0.6413      3.9865E-02 -0.4934     -1.4507E-02   4.942       8.258       11.40       12.08    
        9.933      0.1295     -0.2832       1.295       26.08       39.61       53.32       64.39       75.31       0.000    
   6    0.000     -0.4196     -0.4653     -0.2490       2.447       10.73       16.02       19.67       22.28       23.83    
        23.57       21.53       22.94       28.13       40.92       53.37       67.72       72.81       77.76       0.000    
   7    0.000       9.743       11.33       13.18       16.30       21.31       25.71       29.10       31.13       34.12    
        35.74       36.99       39.98       45.53       54.81       65.06       74.10       80.15       0.000       0.000    
   8    0.000       15.95       20.26       22.89       25.92       29.71       33.48       36.83       39.69       42.61    
        45.21       47.98       51.89       57.48       64.95       73.12       80.62       88.71       0.000       0.000    
   9    0.000       0.000       28.01       29.69       32.25       35.46       38.86       42.17       45.30       48.42    
        51.56       55.06       59.40       64.92       71.61       78.95       86.39       94.36       102.2       107.1    
  10    0.000       0.000       31.77       33.12       35.43       38.37       41.59       44.87       48.09       51.34    
        54.72       58.50       63.03       68.50       74.90       81.89       89.12       96.35       102.7       106.4    

 HEAD WILL BE SAVED ON UNIT   51 AT END OF TIME STEP   10, STRESS PERIOD    2

 DRAWDOWN WILL BE SAVED ON UNIT   52 AT END OF TIME STEP   10, STRESS PERIOD    2
1
  VOLUMETRIC BUDGET FOR ENTIRE MODEL AT END OF TIME STEP   10, STRESS PERIOD   2
  ------------------------------------------------------------------------------

     CUMULATIVE VOLUMES      L**3       RATES FOR THIS TIME STEP      L**3/T
     ------------------                 ------------------------

           IN:                                      IN:
           ---                                      ---
             STORAGE =       51062.5469               STORAGE =        4810.0210
       CONSTANT HEAD =           0.0000         CONSTANT HEAD =           0.0000
               WELLS =           0.0000                 WELLS =           0.0000
       RIVER LEAKAGE =           0.0000         RIVER LEAKAGE =           0.0000
            RECHARGE =      356857.9375              RECHARGE =       33296.1602

            TOTAL IN =      407920.5000              TOTAL IN =       38106.1797

          OUT:                                     OUT:
          ----                                     ----
             STORAGE =       81482.3828               STORAGE =        8117.9634
       CONSTANT HEAD =           0.0000         CONSTANT HEAD =           0.0000
               WELLS =        5603.9355                 WELLS =         509.4487
       RIVER LEAKAGE =      320841.6562         RIVER LEAKAGE =       29479.5801
            RECHARGE =           0.0000              RECHARGE =           0.0000

           TOTAL OUT =      407927.9688             TOTAL OUT =       38106.9922

            IN - OUT =          -7.4688              IN - OUT =          -0.8125

 PERCENT DISCREPANCY =          -0.00     PERCENT DISCREPANCY =          -0.00






         TIME SUMMARY AT END OF TIME STEP   10 IN STRESS PERIOD    2
                    SECONDS     MINUTES      HOURS       DAYS        YEARS
                    -----------------------------------------------------------
   TIME STEP LENGTH  86400.      1440.0      24.000      1.0000     2.73785E-03
 STRESS PERIOD TIME 8.64000E+05  14400.      240.00      10.000     2.73785E-02
         TOTAL TIME 9.50400E+05  15840.      264.00      11.000     3.01164E-02
1

 SOLVING FOR HEAD 

    ------------------------------------------------
       NWT REQUIRED            3 OUTER ITERATIONS 
       AND A TOTAL OF          3 INNER ITERATIONS.
    ------------------------------------------------

 OUTPUT CONTROL FOR STRESS PERIOD    2   TIME STEP   11
    SAVE HEAD FOR ALL LAYERS
    SAVE DRAWDOWN FOR ALL LAYERS
    SAVE BUDGET
    PRINT HEAD FOR ALL LAYERS
    PRINT BUDGET
1
              HEAD IN LAYER   1 AT END OF TIME STEP  11 IN STRESS PERIOD    2
  ---------------------------------------------------------------------------

            1           2           3           4           5           6           7           8           9          10
           11          12          13          14          15          16          17          18          19          20
 ........................................................................................................................
   1    0.000       0.000       0.000       0.000       0.000       10.47       10.33       10.76       11.45       11.38    
        10.13       7.264       2.175     -0.1868       5.801       21.52       31.87       37.41       0.000       0.000    
   2    0.000       0.000       0.000       0.000       8.277       7.858       7.065       7.753       9.247       9.527    
        8.659       6.483       2.528     -0.2143       8.374       23.27       33.56       39.47       0.000       0.000    
   3    0.000       0.000       0.000       6.246       5.925       4.019       3.190       3.769       5.187       5.737    
        5.385       4.340       2.739     -0.3368       14.13       26.04       37.01       43.73       0.000       0.000    
   4    0.000       0.000       3.537       3.855       2.692     -0.3218     -0.1010     -0.1452     -0.3115     -0.2682    
      -0.2733     -0.2628       1.333     -0.3389       19.06       32.32       42.06       50.69       0.000       0.000    
   5    0.000       0.000      0.6422      3.9753E-02 -0.4945     -1.4931E-02   4.943       8.259       11.41       12.08    
        9.934      0.1268     -0.2846       1.293       26.08       39.61       53.32       64.39       75.31       0.000    
   6    0.000     -0.4207     -0.4669     -0.2499       2.447       10.73       16.02       19.67       22.28       23.83    
        23.58       21.53       22.94       28.13       40.92       53.37       67.73       72.81       77.76       0.000    
   7    0.000       9.744       11.33       13.18       16.30       21.31       25.71       29.10       31.13       34.13    
        35.74       36.99       39.99       45.53       54.81       65.06       74.11       80.16       0.000       0.000    
   8    0.000       15.95       20.26       22.90       25.92       29.71       33.48       36.84       39.69       42.61    
        45.21       47.99       51.89       57.48       64.95       73.12       80.62       88.71       0.000       0.000    
   9    0.000       0.000       28.01       29.69       32.26       35.46       38.86       42.17       45.30       48.42    
        51.56       55.06       59.40       64.92       71.61       78.95       86.39       94.36       102.2       107.1    
  10    0.000       0.000       31.77       33.12       35.43       38.37       41.60       44.87       48.09       51.34    
        54.72       58.51       63.03       68.51       74.90       81.89       89.12       96.36       102.7       106.4    

 HEAD WILL BE SAVED ON UNIT   51 AT END OF TIME STEP   11, STRESS PERIOD    2

 DRAWDOWN WILL BE SAVED ON UNIT   52 AT END OF TIME STEP   11, STRESS PERIOD    2
1
  VOLUMETRIC BUDGET FOR ENTIRE MODEL AT END OF TIME STEP   11, STRESS PERIOD   2
  ------------------------------------------------------------------------------

     CUMULATIVE VOLUMES      L**3       RATES FOR THIS TIME STEP      L**3/T
     ------------------                 ------------------------

           IN:                                      IN:
           ---                                      ---
             STORAGE =       55810.9219               STORAGE =        4748.3745
       CONSTANT HEAD =           0.0000         CONSTANT HEAD =           0.0000
               WELLS =           0.0000                 WELLS =           0.0000
       RIVER LEAKAGE =           0.0000         RIVER LEAKAGE =           0.0000
            RECHARGE =      390154.0938              RECHARGE =       33296.1602

            TOTAL IN =      445965.0000              TOTAL IN =       38044.5352

          OUT:                                     OUT:
          ----                                     ----
             STORAGE =       89593.8594               STORAGE =        8111.4800
       CONSTANT HEAD =           0.0000         CONSTANT HEAD =           0.0000
               WELLS =        6113.3843                 WELLS =         509.4487
       RIVER LEAKAGE =      350266.0938         RIVER LEAKAGE =       29424.4316
            RECHARGE =           0.0000              RECHARGE =           0.0000

           TOTAL OUT =      445973.3438             TOTAL OUT =       38045.3594

            IN - OUT =          -8.3438              IN - OUT =          -0.8242

 PERCENT DISCREPANCY =          -0.00     PERCENT DISCREPANCY =          -0.00






         TIME SUMMARY AT END OF TIME STEP   11 IN STRESS PERIOD    2
                    SECONDS     MINUTES      HOURS       DAYS        YEARS
                    -----------------------------------------------------------
   TIME STEP LENGTH  86400.      1440.0      24.000      1.0000     2.73785E-03
 STRESS PERIOD TIME 9.50400E+05  15840.      264.00      11.000     3.01164E-02
         TOTAL TIME 1.03680E+06  17280.      288.00      12.000     3.28542E-02
1

 SOLVING FOR HEAD 

    ------------------------------------------------
       NWT REQUIRED            3 OUTER ITERATIONS 
       AND A TOTAL OF          3 INNER ITERATIONS.
    ------------------------------------------------

 OUTPUT CONTROL FOR STRESS PERIOD    2   TIME STEP   12
    SAVE HEAD FOR ALL LAYERS
    SAVE DRAWDOWN FOR ALL LAYERS
    SAVE BUDGET
    PRINT HEAD FOR ALL LAYERS
    PRINT BUDGET
1
              HEAD IN LAYER   1 AT END OF TIME STEP  12 IN STRESS PERIOD    2
  ---------------------------------------------------------------------------

            1           2           3           4           5           6           7           8           9          10
           11          12          13          14          15          16          17          18          19          20
 ........................................................................................................................
   1    0.000       0.000       0.000       0.000       0.000       10.47       10.33       10.76       11.45       11.38    
        10.14       7.266       2.176     -0.1872       5.803       21.52       31.87       37.41       0.000       0.000    
   2    0.000       0.000       0.000       0.000       8.278       7.860       7.067       7.755       9.248       9.529    
        8.660       6.484       2.530     -0.2149       8.376       23.27       33.57       39.47       0.000       0.000    
   3    0.000       0.000       0.000       6.247       5.926       4.020       3.192       3.770       5.189       5.738    
        5.387       4.341       2.741     -0.3378       14.13       26.05       37.01       43.73       0.000       0.000    
   4    0.000       0.000       3.539       3.857       2.693     -0.3225     -0.1015     -0.1459     -0.3125     -0.2692    
      -0.2742     -0.2631       1.334     -0.3402       19.06       32.32       42.06       50.69       0.000       0.000    
   5    0.000       0.000      0.6431      3.9644E-02 -0.4956     -1.5353E-02   4.945       8.261       11.41       12.08    
        9.935      0.1243     -0.2860       1.291       26.08       39.61       53.32       64.39       75.31       0.000    
   6    0.000     -0.4218     -0.4684     -0.2508       2.447       10.73       16.02       19.67       22.28       23.83    
        23.58       21.53       22.94       28.13       40.92       53.37       67.73       72.81       77.77       0.000    
   7    0.000       9.746       11.33       13.18       16.30       21.31       25.71       29.11       31.13       34.13    
        35.74       36.99       39.99       45.54       54.81       65.06       74.11       80.16       0.000       0.000    
   8    0.000       15.96       20.26       22.90       25.92       29.71       33.48       36.84       39.69       42.61    
        45.21       47.99       51.89       57.49       64.95       73.13       80.62       88.71       0.000       0.000    
   9    0.000       0.000       28.02       29.69       32.26       35.46       38.86       42.17       45.30       48.42    
        51.56       55.06       59.40       64.93       71.62       78.95       86.39       94.36       102.2       107.1    
  10    0.000       0.000       31.77       33.12       35.43       38.37       41.60       44.87       48.09       51.34    
        54.72       58.51       63.03       68.51       74.90       81.90       89.12       96.36       102.7       106.4    

 HEAD WILL BE SAVED ON UNIT   51 AT END OF TIME STEP   12, STRESS PERIOD    2

 DRAWDOWN WILL BE SAVED ON UNIT   52 AT END OF TIME STEP   12, STRESS PERIOD    2
1
  VOLUMETRIC BUDGET FOR ENTIRE MODEL AT END OF TIME STEP   12, STRESS PERIOD   2
  ------------------------------------------------------------------------------

     CUMULATIVE VOLUMES      L**3       RATES FOR THIS TIME STEP      L**3/T
     ------------------                 ------------------------

           IN:                                      IN:
           ---                                      ---
             STORAGE =       60498.6953               STORAGE =        4687.7739
       CONSTANT HEAD =           0.0000         CONSTANT HEAD =           0.0000
               WELLS =           0.0000                 WELLS =           0.0000
       RIVER LEAKAGE =           0.0000         RIVER LEAKAGE =           0.0000
            RECHARGE =      423450.2500              RECHARGE =       33296.1602

            TOTAL IN =      483948.9375              TOTAL IN =       37983.9336

          OUT:                                     OUT:
          ----                                     ----
             STORAGE =       97698.9219               STORAGE =        8105.0586
       CONSTANT HEAD =           0.0000         CONSTANT HEAD =           0.0000
               WELLS =        6622.8330                 WELLS =         509.4487
       RIVER LEAKAGE =      379636.3750         RIVER LEAKAGE =       29370.2656
            RECHARGE =           0.0000              RECHARGE =           0.0000

           TOTAL OUT =      483958.1250             TOTAL OUT =       37984.7734

            IN - OUT =          -9.1875              IN - OUT =          -0.8398

 PERCENT DISCREPANCY =          -0.00     PERCENT DISCREPANCY =          -0.00






         TIME SUMMARY AT END OF TIME STEP   12 IN STRESS PERIOD    2
                    SECONDS     MINUTES      HOURS       DAYS        YEARS
                    -----------------------------------------------------------
   TIME STEP LENGTH  86400.      1440.0      24.000      1.0000     2.73785E-03
 STRESS PERIOD TIME 1.03680E+06  17280.      288.00      12.000     3.28542E-02
         TOTAL TIME 1.12320E+06  18720.      312.00      13.000     3.55921E-02
1

 SOLVING FOR HEAD 

    ------------------------------------------------
       NWT REQUIRED            3 OUTER ITERATIONS 
       AND A TOTAL OF          3 INNER ITERATIONS.
    ------------------------------------------------

 OUTPUT CONTROL FOR STRESS PERIOD    2   TIME STEP   13
    SAVE HEAD FOR ALL LAYERS
    SAVE DRAWDOWN FOR ALL LAYERS
    SAVE BUDGET
    PRINT HEAD FOR ALL LAYERS
    PRINT BUDGET
1
              HEAD IN LAYER   1 AT END OF TIME STEP  13 IN STRESS PERIOD    2
  ---------------------------------------------------------------------------

            1           2           3           4           5           6           7           8           9          10
           11          12          13          14          15          16          17          18          19          20
 ........................................................................................................................
   1    0.000       0.000       0.000       0.000       0.000       10.47       10.33       10.77       11.45       11.38    
        10.14       7.267       2.178     -0.1877       5.804       21.52       31.87       37.41       0.000       0.000    
   2    0.000       0.000       0.000       0.000       8.280       7.861       7.068       7.756       9.250       9.530    
        8.662       6.486       2.531     -0.2155       8.377       23.28       33.57       39.47       0.000       0.000    
   3    0.000       0.000       0.000       6.249       5.928       4.022       3.193       3.772       5.190       5.740    
        5.388       4.343       2.742     -0.3388       14.13       26.05       37.01       43.73       0.000       0.000    
   4    0.000       0.000       3.540       3.858       2.694     -0.3232     -0.1020     -0.1466     -0.3135     -0.2701    
      -0.2750     -0.2635       1.336     -0.3414       19.06       32.32       42.06       50.69       0.000       0.000    
   5    0.000       0.000      0.6439      3.9537E-02 -0.4968     -1.5772E-02   4.946       8.262       11.41       12.08    
        9.937      0.1218     -0.2874       1.290       26.09       39.61       53.32       64.39       75.31       0.000    
   6    0.000     -0.4229     -0.4700     -0.2517       2.448       10.73       16.02       19.67       22.28       23.83    
        23.58       21.53       22.94       28.13       40.92       53.37       67.73       72.81       77.77       0.000    
   7    0.000       9.747       11.33       13.18       16.30       21.31       25.71       29.11       31.14       34.13    
        35.74       36.99       39.99       45.54       54.82       65.06       74.11       80.16       0.000       0.000    
   8    0.000       15.96       20.27       22.90       25.92       29.72       33.49       36.84       39.69       42.61    
        45.21       47.99       51.89       57.49       64.96       73.13       80.62       88.71       0.000       0.000    
   9    0.000       0.000       28.02       29.69       32.26       35.46       38.86       42.17       45.30       48.42    
        51.57       55.06       59.41       64.93       71.62       78.95       86.40       94.36       102.2       107.1    
  10    0.000       0.000       31.77       33.12       35.43       38.37       41.60       44.87       48.10       51.34    
        54.72       58.51       63.03       68.51       74.90       81.90       89.12       96.36       102.7       106.4    

 HEAD WILL BE SAVED ON UNIT   51 AT END OF TIME STEP   13, STRESS PERIOD    2

 DRAWDOWN WILL BE SAVED ON UNIT   52 AT END OF TIME STEP   13, STRESS PERIOD    2
1
  VOLUMETRIC BUDGET FOR ENTIRE MODEL AT END OF TIME STEP   13, STRESS PERIOD   2
  ------------------------------------------------------------------------------

     CUMULATIVE VOLUMES      L**3       RATES FOR THIS TIME STEP      L**3/T
     ------------------                 ------------------------

           IN:                                      IN:
           ---                                      ---
             STORAGE =       65126.8867               STORAGE =        4628.1909
       CONSTANT HEAD =           0.0000         CONSTANT HEAD =           0.0000
               WELLS =           0.0000                 WELLS =           0.0000
       RIVER LEAKAGE =           0.0000         RIVER LEAKAGE =           0.0000
            RECHARGE =      456746.4062              RECHARGE =       33296.1602

            TOTAL IN =      521873.2812              TOTAL IN =       37924.3516

          OUT:                                     OUT:
          ----                                     ----
             STORAGE =      105797.6172               STORAGE =        8098.6978
       CONSTANT HEAD =           0.0000         CONSTANT HEAD =           0.0000
               WELLS =        7132.2817                 WELLS =         509.4487
       RIVER LEAKAGE =      408953.4375         RIVER LEAKAGE =       29317.0566
            RECHARGE =           0.0000              RECHARGE =           0.0000

           TOTAL OUT =      521883.3438             TOTAL OUT =       37925.2031

            IN - OUT =         -10.0625              IN - OUT =          -0.8516

 PERCENT DISCREPANCY =          -0.00     PERCENT DISCREPANCY =          -0.00






         TIME SUMMARY AT END OF TIME STEP   13 IN STRESS PERIOD    2
                    SECONDS     MINUTES      HOURS       DAYS        YEARS
                    -----------------------------------------------------------
   TIME STEP LENGTH  86400.      1440.0      24.000      1.0000     2.73785E-03
 STRESS PERIOD TIME 1.12320E+06  18720.      312.00      13.000     3.55921E-02
         TOTAL TIME 1.20960E+06  20160.      336.00      14.000     3.83299E-02
1

 SOLVING FOR HEAD 

    ------------------------------------------------
       NWT REQUIRED            3 OUTER ITERATIONS 
       AND A TOTAL OF          3 INNER ITERATIONS.
    ------------------------------------------------

 OUTPUT CONTROL FOR STRESS PERIOD    2   TIME STEP   14
    SAVE HEAD FOR ALL LAYERS
    SAVE DRAWDOWN FOR ALL LAYERS
    SAVE BUDGET
    PRINT HEAD FOR ALL LAYERS
    PRINT BUDGET
1
              HEAD IN LAYER   1 AT END OF TIME STEP  14 IN STRESS PERIOD    2
  ---------------------------------------------------------------------------

            1           2           3           4           5           6           7           8           9          10
           11          12          13          14          15          16          17          18          19          20
 ........................................................................................................................
   1    0.000       0.000       0.000       0.000       0.000       10.48       10.33       10.77       11.45       11.38    
        10.14       7.269       2.179     -0.1881       5.806       21.52       31.87       37.41       0.000       0.000    
   2    0.000       0.000       0.000       0.000       8.281       7.863       7.070       7.758       9.251       9.532    
        8.663       6.487       2.533     -0.2161       8.379       23.28       33.57       39.47       0.000       0.000    
   3    0.000       0.000       0.000       6.250       5.930       4.023       3.194       3.773       5.192       5.741    
        5.390       4.344       2.744     -0.3398       14.13       26.05       37.01       43.73       0.000       0.000    
   4    0.000       0.000       3.542       3.860       2.696     -0.3239     -0.1025     -0.1473     -0.3146     -0.2711    
      -0.2758     -0.2638       1.337     -0.3427       19.06       32.32       42.06       50.69       0.000       0.000    
   5    0.000       0.000      0.6448      3.9434E-02 -0.4979     -1.6188E-02   4.947       8.264       11.41       12.08    
        9.938      0.1196     -0.2887       1.288       26.09       39.61       53.32       64.39       75.32       0.000    
   6    0.000     -0.4239     -0.4715     -0.2525       2.448       10.74       16.02       19.67       22.29       23.83    
        23.58       21.53       22.94       28.13       40.92       53.37       67.73       72.81       77.77       0.000    
   7    0.000       9.749       11.33       13.18       16.30       21.31       25.71       29.11       31.14       34.13    
        35.74       37.00       39.99       45.54       54.82       65.07       74.11       80.16       0.000       0.000    
   8    0.000       15.96       20.27       22.90       25.92       29.72       33.49       36.84       39.69       42.61    
        45.21       47.99       51.89       57.49       64.96       73.13       80.62       88.71       0.000       0.000    
   9    0.000       0.000       28.02       29.69       32.26       35.46       38.87       42.17       45.31       48.42    
        51.57       55.06       59.41       64.93       71.62       78.95       86.40       94.37       102.2       107.1    
  10    0.000       0.000       31.77       33.12       35.43       38.37       41.60       44.87       48.10       51.34    
        54.73       58.51       63.03       68.51       74.91       81.90       89.12       96.36       102.7       106.4    

 HEAD WILL BE SAVED ON UNIT   51 AT END OF TIME STEP   14, STRESS PERIOD    2

 DRAWDOWN WILL BE SAVED ON UNIT   52 AT END OF TIME STEP   14, STRESS PERIOD    2
1
  VOLUMETRIC BUDGET FOR ENTIRE MODEL AT END OF TIME STEP   14, STRESS PERIOD   2
  ------------------------------------------------------------------------------

     CUMULATIVE VOLUMES      L**3       RATES FOR THIS TIME STEP      L**3/T
     ------------------                 ------------------------

           IN:                                      IN:
           ---                                      ---
             STORAGE =       69696.4844               STORAGE =        4569.5981
       CONSTANT HEAD =           0.0000         CONSTANT HEAD =           0.0000
               WELLS =           0.0000                 WELLS =           0.0000
       RIVER LEAKAGE =           0.0000         RIVER LEAKAGE =           0.0000
            RECHARGE =      490042.5625              RECHARGE =       33296.1602

            TOTAL IN =      559739.0625              TOTAL IN =       37865.7578

          OUT:                                     OUT:
          ----                                     ----
             STORAGE =      113890.0156               STORAGE =        8092.3955
       CONSTANT HEAD =           0.0000         CONSTANT HEAD =           0.0000
               WELLS =        7641.7305                 WELLS =         509.4487
       RIVER LEAKAGE =      438218.2188         RIVER LEAKAGE =       29264.7793
            RECHARGE =           0.0000              RECHARGE =           0.0000

           TOTAL OUT =      559750.0000             TOTAL OUT =       37866.6250

            IN - OUT =         -10.9375              IN - OUT =          -0.8672

 PERCENT DISCREPANCY =          -0.00     PERCENT DISCREPANCY =          -0.00






         TIME SUMMARY AT END OF TIME STEP   14 IN STRESS PERIOD    2
                    SECONDS     MINUTES      HOURS       DAYS        YEARS
                    -----------------------------------------------------------
   TIME STEP LENGTH  86400.      1440.0      24.000      1.0000     2.73785E-03
 STRESS PERIOD TIME 1.20960E+06  20160.      336.00      14.000     3.83299E-02
         TOTAL TIME 1.29600E+06  21600.      360.00      15.000     4.10678E-02
1

 SOLVING FOR HEAD 

    ------------------------------------------------
       NWT REQUIRED            3 OUTER ITERATIONS 
       AND A TOTAL OF          3 INNER ITERATIONS.
    ------------------------------------------------

 OUTPUT CONTROL FOR STRESS PERIOD    2   TIME STEP   15
    SAVE HEAD FOR ALL LAYERS
    SAVE DRAWDOWN FOR ALL LAYERS
    SAVE BUDGET
    PRINT HEAD FOR ALL LAYERS
    PRINT BUDGET
1
              HEAD IN LAYER   1 AT END OF TIME STEP  15 IN STRESS PERIOD    2
  ---------------------------------------------------------------------------

            1           2           3           4           5           6           7           8           9          10
           11          12          13          14          15          16          17          18          19          20
 ........................................................................................................................
   1    0.000       0.000       0.000       0.000       0.000       10.48       10.33       10.77       11.45       11.39    
        10.14       7.271       2.180     -0.1886       5.807       21.52       31.87       37.41       0.000       0.000    
   2    0.000       0.000       0.000       0.000       8.283       7.864       7.071       7.760       9.253       9.533    
        8.665       6.489       2.534     -0.2167       8.380       23.28       33.57       39.47       0.000       0.000    
   3    0.000       0.000       0.000       6.252       5.931       4.024       3.196       3.775       5.193       5.743    
        5.391       4.346       2.745     -0.3408       14.13       26.05       37.01       43.73       0.000       0.000    
   4    0.000       0.000       3.543       3.861       2.697     -0.3246     -0.1030     -0.1480     -0.3156     -0.2720    
      -0.2767     -0.2642       1.339     -0.3439       19.06       32.32       42.06       50.69       0.000       0.000    
   5    0.000       0.000      0.6456      3.9332E-02 -0.4990     -1.6601E-02   4.949       8.265       11.41       12.08    
        9.940      0.1174     -0.2901       1.287       26.09       39.62       53.32       64.39       75.32       0.000    
   6    0.000     -0.4250     -0.4730     -0.2534       2.449       10.74       16.02       19.68       22.29       23.84    
        23.58       21.53       22.95       28.13       40.93       53.37       67.73       72.82       77.77       0.000    
   7    0.000       9.750       11.33       13.18       16.31       21.31       25.71       29.11       31.14       34.13    
        35.75       37.00       39.99       45.54       54.82       65.07       74.11       80.16       0.000       0.000    
   8    0.000       15.96       20.27       22.90       25.92       29.72       33.49       36.84       39.70       42.61    
        45.21       47.99       51.89       57.49       64.96       73.13       80.62       88.71       0.000       0.000    
   9    0.000       0.000       28.02       29.69       32.26       35.47       38.87       42.17       45.31       48.43    
        51.57       55.06       59.41       64.93       71.62       78.95       86.40       94.37       102.2       107.1    
  10    0.000       0.000       31.77       33.12       35.43       38.37       41.60       44.87       48.10       51.34    
        54.73       58.51       63.03       68.51       74.91       81.90       89.12       96.36       102.7       106.4    

 HEAD WILL BE SAVED ON UNIT   51 AT END OF TIME STEP   15, STRESS PERIOD    2

 DRAWDOWN WILL BE SAVED ON UNIT   52 AT END OF TIME STEP   15, STRESS PERIOD    2
1
  VOLUMETRIC BUDGET FOR ENTIRE MODEL AT END OF TIME STEP   15, STRESS PERIOD   2
  ------------------------------------------------------------------------------

     CUMULATIVE VOLUMES      L**3       RATES FOR THIS TIME STEP      L**3/T
     ------------------                 ------------------------

           IN:                                      IN:
           ---                                      ---
             STORAGE =       74208.4531               STORAGE =        4511.9692
       CONSTANT HEAD =           0.0000         CONSTANT HEAD =           0.0000
               WELLS =           0.0000                 WELLS =           0.0000
       RIVER LEAKAGE =           0.0000         RIVER LEAKAGE =           0.0000
            RECHARGE =      523338.7188              RECHARGE =       33296.1602

            TOTAL IN =      597547.1875              TOTAL IN =       37808.1289

          OUT:                                     OUT:
          ----                                     ----
             STORAGE =      121976.1641               STORAGE =        8086.1509
       CONSTANT HEAD =           0.0000         CONSTANT HEAD =           0.0000
               WELLS =        8151.1792                 WELLS =         509.4487
       RIVER LEAKAGE =      467431.6250         RIVER LEAKAGE =       29213.4082
            RECHARGE =           0.0000              RECHARGE =           0.0000

           TOTAL OUT =      597559.0000             TOTAL OUT =       37809.0078

            IN - OUT =         -11.8125              IN - OUT =          -0.8789

 PERCENT DISCREPANCY =          -0.00     PERCENT DISCREPANCY =          -0.00






         TIME SUMMARY AT END OF TIME STEP   15 IN STRESS PERIOD    2
                    SECONDS     MINUTES      HOURS       DAYS        YEARS
                    -----------------------------------------------------------
   TIME STEP LENGTH  86400.      1440.0      24.000      1.0000     2.73785E-03
 STRESS PERIOD TIME 1.29600E+06  21600.      360.00      15.000     4.10678E-02
         TOTAL TIME 1.38240E+06  23040.      384.00      16.000     4.38056E-02
1

 SOLVING FOR HEAD 

    ------------------------------------------------
       NWT REQUIRED            3 OUTER ITERATIONS 
       AND A TOTAL OF          3 INNER ITERATIONS.
    ------------------------------------------------

 OUTPUT CONTROL FOR STRESS PERIOD    2   TIME STEP   16
    SAVE HEAD FOR ALL LAYERS
    SAVE DRAWDOWN FOR ALL LAYERS
    SAVE BUDGET
    PRINT HEAD FOR ALL LAYERS
    PRINT BUDGET
1
              HEAD IN LAYER   1 AT END OF TIME STEP  16 IN STRESS PERIOD    2
  ---------------------------------------------------------------------------

            1           2           3           4           5           6           7           8           9          10
           11          12          13          14          15          16          17          18          19          20
 ........................................................................................................................
   1    0.000       0.000       0.000       0.000       0.000       10.48       10.33       10.77       11.45       11.39    
        10.14       7.272       2.182     -0.1890       5.808       21.53       31.88       37.42       0.000       0.000    
   2    0.000       0.000       0.000       0.000       8.284       7.866       7.073       7.761       9.254       9.535    
        8.666       6.490       2.535     -0.2173       8.382       23.28       33.57       39.47       0.000       0.000    
   3    0.000       0.000       0.000       6.254       5.933       4.026       3.197       3.776       5.195       5.744    
        5.393       4.347       2.747     -0.3418       14.13       26.05       37.01       43.73       0.000       0.000    
   4    0.000       0.000       3.545       3.863       2.699     -0.3253     -0.1035     -0.1487     -0.3166     -0.2729    
      -0.2775     -0.2645       1.340     -0.3451       19.06       32.32       42.06       50.69       0.000       0.000    
   5    0.000       0.000      0.6464      3.9234E-02 -0.5001     -1.7012E-02   4.950       8.266       11.41       12.09    
        9.941      0.1154     -0.2914       1.285       26.09       39.62       53.33       64.39       75.32       0.000    
   6    0.000     -0.4260     -0.4744     -0.2542       2.449       10.74       16.03       19.68       22.29       23.84    
        23.58       21.53       22.95       28.13       40.93       53.38       67.73       72.82       77.77       0.000    
   7    0.000       9.752       11.34       13.19       16.31       21.32       25.72       29.11       31.14       34.13    
        35.75       37.00       39.99       45.54       54.82       65.07       74.11       80.16       0.000       0.000    
   8    0.000       15.96       20.27       22.90       25.93       29.72       33.49       36.84       39.70       42.62    
        45.22       47.99       51.90       57.49       64.96       73.13       80.63       88.72       0.000       0.000    
   9    0.000       0.000       28.02       29.69       32.26       35.47       38.87       42.18       45.31       48.43    
        51.57       55.07       59.41       64.93       71.62       78.96       86.40       94.37       102.2       107.1    
  10    0.000       0.000       31.77       33.13       35.43       38.37       41.60       44.88       48.10       51.35    
        54.73       58.51       63.04       68.51       74.91       81.90       89.13       96.36       102.7       106.4    

 HEAD WILL BE SAVED ON UNIT   51 AT END OF TIME STEP   16, STRESS PERIOD    2

 DRAWDOWN WILL BE SAVED ON UNIT   52 AT END OF TIME STEP   16, STRESS PERIOD    2
1
  VOLUMETRIC BUDGET FOR ENTIRE MODEL AT END OF TIME STEP   16, STRESS PERIOD   2
  ------------------------------------------------------------------------------

     CUMULATIVE VOLUMES      L**3       RATES FOR THIS TIME STEP      L**3/T
     ------------------                 ------------------------

           IN:                                      IN:
           ---                                      ---
             STORAGE =       78663.7344               STORAGE =        4455.2788
       CONSTANT HEAD =           0.0000         CONSTANT HEAD =           0.0000
               WELLS =           0.0000                 WELLS =           0.0000
       RIVER LEAKAGE =           0.0000         RIVER LEAKAGE =           0.0000
            RECHARGE =      556634.8750              RECHARGE =       33296.1602

            TOTAL IN =      635298.6250              TOTAL IN =       37751.4375

          OUT:                                     OUT:
          ----                                     ----
             STORAGE =      130056.1250               STORAGE =        8079.9624
       CONSTANT HEAD =           0.0000         CONSTANT HEAD =           0.0000
               WELLS =        8660.6279                 WELLS =         509.4487
       RIVER LEAKAGE =      496594.5312         RIVER LEAKAGE =       29162.9199
            RECHARGE =           0.0000              RECHARGE =           0.0000

           TOTAL OUT =      635311.2500             TOTAL OUT =       37752.3320

            IN - OUT =         -12.6250              IN - OUT =          -0.8945

 PERCENT DISCREPANCY =          -0.00     PERCENT DISCREPANCY =          -0.00






         TIME SUMMARY AT END OF TIME STEP   16 IN STRESS PERIOD    2
                    SECONDS     MINUTES      HOURS       DAYS        YEARS
                    -----------------------------------------------------------
   TIME STEP LENGTH  86400.      1440.0      24.000      1.0000     2.73785E-03
 STRESS PERIOD TIME 1.38240E+06  23040.      384.00      16.000     4.38056E-02
         TOTAL TIME 1.46880E+06  24480.      408.00      17.000     4.65435E-02
1

 SOLVING FOR HEAD 

    ------------------------------------------------
       NWT REQUIRED            3 OUTER ITERATIONS 
       AND A TOTAL OF          3 INNER ITERATIONS.
    ------------------------------------------------

 OUTPUT CONTROL FOR STRESS PERIOD    2   TIME STEP   17
    SAVE HEAD FOR ALL LAYERS
    SAVE DRAWDOWN FOR ALL LAYERS
    SAVE BUDGET
    PRINT HEAD FOR ALL LAYERS
    PRINT BUDGET
1
              HEAD IN LAYER   1 AT END OF TIME STEP  17 IN STRESS PERIOD    2
  ---------------------------------------------------------------------------

            1           2           3           4           5           6           7           8           9          10
           11          12          13          14          15          16          17          18          19          20
 ........................................................................................................................
   1    0.000       0.000       0.000       0.000       0.000       10.48       10.33       10.77       11.45       11.39    
        10.14       7.274       2.183     -0.1894       5.810       21.53       31.88       37.42       0.000       0.000    
   2    0.000       0.000       0.000       0.000       8.286       7.868       7.074       7.763       9.256       9.537    
        8.668       6.492       2.537     -0.2179       8.383       23.28       33.57       39.47       0.000       0.000    
   3    0.000       0.000       0.000       6.255       5.934       4.027       3.199       3.778       5.196       5.746    
        5.394       4.349       2.748     -0.3427       14.13       26.05       37.02       43.73       0.000       0.000    
   4    0.000       0.000       3.546       3.864       2.700     -0.3260     -0.1040     -0.1494     -0.3175     -0.2738    
      -0.2783     -0.2648       1.341     -0.3463       19.06       32.33       42.07       50.70       0.000       0.000    
   5    0.000       0.000      0.6473      3.9138E-02 -0.5011     -1.7420E-02   4.952       8.268       11.41       12.09    
        9.943      0.1134     -0.2927       1.284       26.09       39.62       53.33       64.40       75.32       0.000    
   6    0.000     -0.4270     -0.4759     -0.2550       2.449       10.74       16.03       19.68       22.29       23.84    
        23.59       21.54       22.95       28.14       40.93       53.38       67.73       72.82       77.77       0.000    
   7    0.000       9.753       11.34       13.19       16.31       21.32       25.72       29.11       31.14       34.13    
        35.75       37.00       39.99       45.54       54.82       65.07       74.11       80.17       0.000       0.000    
   8    0.000       15.96       20.27       22.91       25.93       29.72       33.49       36.85       39.70       42.62    
        45.22       47.99       51.90       57.49       64.96       73.13       80.63       88.72       0.000       0.000    
   9    0.000       0.000       28.02       29.70       32.26       35.47       38.87       42.18       45.31       48.43    
        51.57       55.07       59.41       64.93       71.62       78.96       86.40       94.37       102.2       107.1    
  10    0.000       0.000       31.78       33.13       35.44       38.38       41.61       44.88       48.10       51.35    
        54.73       58.51       63.04       68.52       74.91       81.90       89.13       96.36       102.7       106.4    

 HEAD WILL BE SAVED ON UNIT   51 AT END OF TIME STEP   17, STRESS PERIOD    2

 DRAWDOWN WILL BE SAVED ON UNIT   52 AT END OF TIME STEP   17, STRESS PERIOD    2
1
  VOLUMETRIC BUDGET FOR ENTIRE MODEL AT END OF TIME STEP   17, STRESS PERIOD   2
  ------------------------------------------------------------------------------

     CUMULATIVE VOLUMES      L**3       RATES FOR THIS TIME STEP      L**3/T
     ------------------                 ------------------------

           IN:                                      IN:
           ---                                      ---
             STORAGE =       83063.2344               STORAGE =        4399.5039
       CONSTANT HEAD =           0.0000         CONSTANT HEAD =           0.0000
               WELLS =           0.0000                 WELLS =           0.0000
       RIVER LEAKAGE =           0.0000         RIVER LEAKAGE =           0.0000
            RECHARGE =      589931.0625              RECHARGE =       33296.1602

            TOTAL IN =      672994.3125              TOTAL IN =       37695.6641

          OUT:                                     OUT:
          ----                                     ----
             STORAGE =      138129.9531               STORAGE =        8073.8291
       CONSTANT HEAD =           0.0000         CONSTANT HEAD =           0.0000
               WELLS =        9170.0762                 WELLS =         509.4487
       RIVER LEAKAGE =      525707.8125         RIVER LEAKAGE =       29113.2910
            RECHARGE =           0.0000              RECHARGE =           0.0000

           TOTAL OUT =      673007.8750             TOTAL OUT =       37696.5703

            IN - OUT =         -13.5625              IN - OUT =          -0.9062

 PERCENT DISCREPANCY =          -0.00     PERCENT DISCREPANCY =          -0.00






         TIME SUMMARY AT END OF TIME STEP   17 IN STRESS PERIOD    2
                    SECONDS     MINUTES      HOURS       DAYS        YEARS
                    -----------------------------------------------------------
   TIME STEP LENGTH  86400.      1440.0      24.000      1.0000     2.73785E-03
 STRESS PERIOD TIME 1.46880E+06  24480.      408.00      17.000     4.65435E-02
         TOTAL TIME 1.55520E+06  25920.      432.00      18.000     4.92813E-02
1

 SOLVING FOR HEAD 

    ------------------------------------------------
       NWT REQUIRED            3 OUTER ITERATIONS 
       AND A TOTAL OF          3 INNER ITERATIONS.
    ------------------------------------------------

 OUTPUT CONTROL FOR STRESS PERIOD    2   TIME STEP   18
    SAVE HEAD FOR ALL LAYERS
    SAVE DRAWDOWN FOR ALL LAYERS
    SAVE BUDGET
    PRINT HEAD FOR ALL LAYERS
    PRINT BUDGET
1
              HEAD IN LAYER   1 AT END OF TIME STEP  18 IN STRESS PERIOD    2
  ---------------------------------------------------------------------------

            1           2           3           4           5           6           7           8           9          10
           11          12          13          14          15          16          17          18          19          20
 ........................................................................................................................
   1    0.000       0.000       0.000       0.000       0.000       10.48       10.34       10.77       11.46       11.39    
        10.14       7.275       2.185     -0.1899       5.811       21.53       31.88       37.42       0.000       0.000    
   2    0.000       0.000       0.000       0.000       8.287       7.869       7.076       7.764       9.257       9.538    
        8.670       6.493       2.538     -0.2185       8.384       23.28       33.57       39.48       0.000       0.000    
   3    0.000       0.000       0.000       6.257       5.936       4.029       3.200       3.779       5.197       5.747    
        5.396       4.350       2.750     -0.3437       14.14       26.05       37.02       43.74       0.000       0.000    
   4    0.000       0.000       3.548       3.866       2.702     -0.3267     -0.1044     -0.1500     -0.3185     -0.2747    
      -0.2791     -0.2652       1.343     -0.3474       19.07       32.33       42.07       50.70       0.000       0.000    
   5    0.000       0.000      0.6481      3.9044E-02 -0.5022     -1.7825E-02   4.953       8.269       11.42       12.09    
        9.944      0.1116     -0.2939       1.282       26.09       39.62       53.33       64.40       75.32       0.000    
   6    0.000     -0.4280     -0.4773     -0.2559       2.450       10.74       16.03       19.68       22.29       23.84    
        23.59       21.54       22.95       28.14       40.93       53.38       67.74       72.82       77.78       0.000    
   7    0.000       9.755       11.34       13.19       16.31       21.32       25.72       29.11       31.14       34.14    
        35.75       37.00       40.00       45.54       54.82       65.07       74.12       80.17       0.000       0.000    
   8    0.000       15.97       20.27       22.91       25.93       29.72       33.49       36.85       39.70       42.62    
        45.22       48.00       51.90       57.49       64.96       73.13       80.63       88.72       0.000       0.000    
   9    0.000       0.000       28.02       29.70       32.27       35.47       38.87       42.18       45.31       48.43    
        51.57       55.07       59.41       64.93       71.63       78.96       86.40       94.37       102.2       107.1    
  10    0.000       0.000       31.78       33.13       35.44       38.38       41.61       44.88       48.10       51.35    
        54.73       58.52       63.04       68.52       74.91       81.91       89.13       96.37       102.7       106.4    

 HEAD WILL BE SAVED ON UNIT   51 AT END OF TIME STEP   18, STRESS PERIOD    2

 DRAWDOWN WILL BE SAVED ON UNIT   52 AT END OF TIME STEP   18, STRESS PERIOD    2
1
  VOLUMETRIC BUDGET FOR ENTIRE MODEL AT END OF TIME STEP   18, STRESS PERIOD   2
  ------------------------------------------------------------------------------

     CUMULATIVE VOLUMES      L**3       RATES FOR THIS TIME STEP      L**3/T
     ------------------                 ------------------------

           IN:                                      IN:
           ---                                      ---
             STORAGE =       87407.8516               STORAGE =        4344.6201
       CONSTANT HEAD =           0.0000         CONSTANT HEAD =           0.0000
               WELLS =           0.0000                 WELLS =           0.0000
       RIVER LEAKAGE =           0.0000         RIVER LEAKAGE =           0.0000
            RECHARGE =      623227.2500              RECHARGE =       33296.1602

            TOTAL IN =      710635.1250              TOTAL IN =       37640.7812

          OUT:                                     OUT:
          ----                                     ----
             STORAGE =      146197.7031               STORAGE =        8067.7490
       CONSTANT HEAD =           0.0000         CONSTANT HEAD =           0.0000
               WELLS =        9679.5244                 WELLS =         509.4487
       RIVER LEAKAGE =      554772.3125         RIVER LEAKAGE =       29064.5000
            RECHARGE =           0.0000              RECHARGE =           0.0000

           TOTAL OUT =      710649.5625             TOTAL OUT =       37641.6953

            IN - OUT =         -14.4375              IN - OUT =          -0.9141

 PERCENT DISCREPANCY =          -0.00     PERCENT DISCREPANCY =          -0.00






         TIME SUMMARY AT END OF TIME STEP   18 IN STRESS PERIOD    2
                    SECONDS     MINUTES      HOURS       DAYS        YEARS
                    -----------------------------------------------------------
   TIME STEP LENGTH  86400.      1440.0      24.000      1.0000     2.73785E-03
 STRESS PERIOD TIME 1.55520E+06  25920.      432.00      18.000     4.92813E-02
         TOTAL TIME 1.64160E+06  27360.      456.00      19.000     5.20192E-02
1

 SOLVING FOR HEAD 

    ------------------------------------------------
       NWT REQUIRED            3 OUTER ITERATIONS 
       AND A TOTAL OF          3 INNER ITERATIONS.
    ------------------------------------------------

 OUTPUT CONTROL FOR STRESS PERIOD    2   TIME STEP   19
    SAVE HEAD FOR ALL LAYERS
    SAVE DRAWDOWN FOR ALL LAYERS
    SAVE BUDGET
    PRINT HEAD FOR ALL LAYERS
    PRINT BUDGET
1
              HEAD IN LAYER   1 AT END OF TIME STEP  19 IN STRESS PERIOD    2
  ---------------------------------------------------------------------------

            1           2           3           4           5           6           7           8           9          10
           11          12          13          14          15          16          17          18          19          20
 ........................................................................................................................
   1    0.000       0.000       0.000       0.000       0.000       10.48       10.34       10.77       11.46       11.39    
        10.15       7.277       2.186     -0.1903       5.813       21.53       31.88       37.42       0.000       0.000    
   2    0.000       0.000       0.000       0.000       8.289       7.871       7.077       7.766       9.259       9.540    
        8.671       6.495       2.540     -0.2191       8.386       23.29       33.58       39.48       0.000       0.000    
   3    0.000       0.000       0.000       6.258       5.937       4.030       3.201       3.780       5.199       5.749    
        5.397       4.352       2.751     -0.3446       14.14       26.06       37.02       43.74       0.000       0.000    
   4    0.000       0.000       3.549       3.867       2.703     -0.3273     -0.1049     -0.1507     -0.3195     -0.2756    
      -0.2799     -0.2655       1.344     -0.3486       19.07       32.33       42.07       50.70       0.000       0.000    
   5    0.000       0.000      0.6489      3.8953E-02 -0.5032     -1.8227E-02   4.954       8.271       11.42       12.09    
        9.945      0.1099     -0.2952       1.281       26.09       39.62       53.33       64.40       75.32       0.000    
   6    0.000     -0.4290     -0.4786     -0.2567       2.450       10.74       16.03       19.68       22.29       23.84    
        23.59       21.54       22.95       28.14       40.93       53.38       67.74       72.82       77.78       0.000    
   7    0.000       9.756       11.34       13.19       16.31       21.32       25.72       29.12       31.15       34.14    
        35.75       37.00       40.00       45.55       54.83       65.07       74.12       80.17       0.000       0.000    
   8    0.000       15.97       20.27       22.91       25.93       29.72       33.49       36.85       39.70       42.62    
        45.22       48.00       51.90       57.50       64.96       73.14       80.63       88.72       0.000       0.000    
   9    0.000       0.000       28.03       29.70       32.27       35.47       38.87       42.18       45.31       48.43    
        51.58       55.07       59.41       64.94       71.63       78.96       86.40       94.37       102.2       107.1    
  10    0.000       0.000       31.78       33.13       35.44       38.38       41.61       44.88       48.11       51.35    
        54.73       58.52       63.04       68.52       74.91       81.91       89.13       96.37       102.7       106.4    

 HEAD WILL BE SAVED ON UNIT   51 AT END OF TIME STEP   19, STRESS PERIOD    2

 DRAWDOWN WILL BE SAVED ON UNIT   52 AT END OF TIME STEP   19, STRESS PERIOD    2
1
  VOLUMETRIC BUDGET FOR ENTIRE MODEL AT END OF TIME STEP   19, STRESS PERIOD   2
  ------------------------------------------------------------------------------

     CUMULATIVE VOLUMES      L**3       RATES FOR THIS TIME STEP      L**3/T
     ------------------                 ------------------------

           IN:                                      IN:
           ---                                      ---
             STORAGE =       91698.4531               STORAGE =        4290.6055
       CONSTANT HEAD =           0.0000         CONSTANT HEAD =           0.0000
               WELLS =           0.0000                 WELLS =           0.0000
       RIVER LEAKAGE =           0.0000         RIVER LEAKAGE =           0.0000
            RECHARGE =      656523.4375              RECHARGE =       33296.1602

            TOTAL IN =      748221.8750              TOTAL IN =       37586.7656

          OUT:                                     OUT:
          ----                                     ----
             STORAGE =      154259.4219               STORAGE =        8061.7222
       CONSTANT HEAD =           0.0000         CONSTANT HEAD =           0.0000
               WELLS =       10188.9727                 WELLS =         509.4487
       RIVER LEAKAGE =      583788.8125         RIVER LEAKAGE =       29016.5234
            RECHARGE =           0.0000              RECHARGE =           0.0000

           TOTAL OUT =      748237.1875             TOTAL OUT =       37587.6953

            IN - OUT =         -15.3125              IN - OUT =          -0.9297

 PERCENT DISCREPANCY =          -0.00     PERCENT DISCREPANCY =          -0.00






         TIME SUMMARY AT END OF TIME STEP   19 IN STRESS PERIOD    2
                    SECONDS     MINUTES      HOURS       DAYS        YEARS
                    -----------------------------------------------------------
   TIME STEP LENGTH  86400.      1440.0      24.000      1.0000     2.73785E-03
 STRESS PERIOD TIME 1.64160E+06  27360.      456.00      19.000     5.20192E-02
         TOTAL TIME 1.72800E+06  28800.      480.00      20.000     5.47570E-02
1

 SOLVING FOR HEAD 

    ------------------------------------------------
       NWT REQUIRED            3 OUTER ITERATIONS 
       AND A TOTAL OF          3 INNER ITERATIONS.
    ------------------------------------------------

 OUTPUT CONTROL FOR STRESS PERIOD    2   TIME STEP   20
    SAVE HEAD FOR ALL LAYERS
    SAVE DRAWDOWN FOR ALL LAYERS
    SAVE BUDGET
    PRINT HEAD FOR ALL LAYERS
    PRINT BUDGET
1
              HEAD IN LAYER   1 AT END OF TIME STEP  20 IN STRESS PERIOD    2
  ---------------------------------------------------------------------------

            1           2           3           4           5           6           7           8           9          10
           11          12          13          14          15          16          17          18          19          20
 ........................................................................................................................
   1    0.000       0.000       0.000       0.000       0.000       10.49       10.34       10.78       11.46       11.39    
        10.15       7.278       2.187     -0.1907       5.814       21.53       31.88       37.42       0.000       0.000    
   2    0.000       0.000       0.000       0.000       8.290       7.872       7.079       7.767       9.260       9.541    
        8.673       6.496       2.541     -0.2197       8.387       23.29       33.58       39.48       0.000       0.000    
   3    0.000       0.000       0.000       6.260       5.939       4.032       3.203       3.782       5.200       5.750    
        5.399       4.353       2.753     -0.3455       14.14       26.06       37.02       43.74       0.000       0.000    
   4    0.000       0.000       3.551       3.869       2.704     -0.3280     -0.1054     -0.1514     -0.3204     -0.2765    
      -0.2807     -0.2658       1.346     -0.3497       19.07       32.33       42.07       50.70       0.000       0.000    
   5    0.000       0.000      0.6497      3.8864E-02 -0.5042     -1.8627E-02   4.956       8.272       11.42       12.09    
        9.947      0.1083     -0.2964       1.280       26.10       39.62       53.33       64.40       75.32       0.000    
   6    0.000     -0.4300     -0.4800     -0.2575       2.450       10.75       16.03       19.68       22.30       23.84    
        23.59       21.54       22.95       28.14       40.93       53.38       67.74       72.82       77.78       0.000    
   7    0.000       9.758       11.34       13.19       16.31       21.32       25.72       29.12       31.15       34.14    
        35.75       37.01       40.00       45.55       54.83       65.08       74.12       80.17       0.000       0.000    
   8    0.000       15.97       20.28       22.91       25.93       29.73       33.50       36.85       39.70       42.62    
        45.22       48.00       51.90       57.50       64.97       73.14       80.63       88.72       0.000       0.000    
   9    0.000       0.000       28.03       29.70       32.27       35.47       38.87       42.18       45.32       48.43    
        51.58       55.07       59.42       64.94       71.63       78.96       86.41       94.38       102.2       107.1    
  10    0.000       0.000       31.78       33.13       35.44       38.38       41.61       44.88       48.11       51.35    
        54.74       58.52       63.04       68.52       74.92       81.91       89.13       96.37       102.7       106.4    

 HEAD WILL BE SAVED ON UNIT   51 AT END OF TIME STEP   20, STRESS PERIOD    2

 DRAWDOWN WILL BE SAVED ON UNIT   52 AT END OF TIME STEP   20, STRESS PERIOD    2
1
  VOLUMETRIC BUDGET FOR ENTIRE MODEL AT END OF TIME STEP   20, STRESS PERIOD   2
  ------------------------------------------------------------------------------

     CUMULATIVE VOLUMES      L**3       RATES FOR THIS TIME STEP      L**3/T
     ------------------                 ------------------------

           IN:                                      IN:
           ---                                      ---
             STORAGE =       95935.8906               STORAGE =        4237.4390
       CONSTANT HEAD =           0.0000         CONSTANT HEAD =           0.0000
               WELLS =           0.0000                 WELLS =           0.0000
       RIVER LEAKAGE =           0.0000         RIVER LEAKAGE =           0.0000
            RECHARGE =      689819.6250              RECHARGE =       33296.1602

            TOTAL IN =      785755.5000              TOTAL IN =       37533.5977

          OUT:                                     OUT:
          ----                                     ----
             STORAGE =      162315.1719               STORAGE =        8055.7471
       CONSTANT HEAD =           0.0000         CONSTANT HEAD =           0.0000
               WELLS =       10698.4209                 WELLS =         509.4487
       RIVER LEAKAGE =      612758.1250         RIVER LEAKAGE =       28969.3438
            RECHARGE =           0.0000              RECHARGE =           0.0000

           TOTAL OUT =      785771.7500             TOTAL OUT =       37534.5391

            IN - OUT =         -16.2500              IN - OUT =          -0.9414

 PERCENT DISCREPANCY =          -0.00     PERCENT DISCREPANCY =          -0.00






         TIME SUMMARY AT END OF TIME STEP   20 IN STRESS PERIOD    2
                    SECONDS     MINUTES      HOURS       DAYS        YEARS
                    -----------------------------------------------------------
   TIME STEP LENGTH  86400.      1440.0      24.000      1.0000     2.73785E-03
 STRESS PERIOD TIME 1.72800E+06  28800.      480.00      20.000     5.47570E-02
         TOTAL TIME 1.81440E+06  30240.      504.00      21.000     5.74949E-02
1

 SOLVING FOR HEAD 

    ------------------------------------------------
       NWT REQUIRED            3 OUTER ITERATIONS 
       AND A TOTAL OF          3 INNER ITERATIONS.
    ------------------------------------------------

 OUTPUT CONTROL FOR STRESS PERIOD    2   TIME STEP   21
    SAVE HEAD FOR ALL LAYERS
    SAVE DRAWDOWN FOR ALL LAYERS
    SAVE BUDGET
    PRINT HEAD FOR ALL LAYERS
    PRINT BUDGET
1
              HEAD IN LAYER   1 AT END OF TIME STEP  21 IN STRESS PERIOD    2
  ---------------------------------------------------------------------------

            1           2           3           4           5           6           7           8           9          10
           11          12          13          14          15          16          17          18          19          20
 ........................................................................................................................
   1    0.000       0.000       0.000       0.000       0.000       10.49       10.34       10.78       11.46       11.39    
        10.15       7.280       2.189     -0.1911       5.815       21.53       31.88       37.42       0.000       0.000    
   2    0.000       0.000       0.000       0.000       8.292       7.874       7.081       7.769       9.262       9.543    
        8.674       6.498       2.543     -0.2203       8.389       23.29       33.58       39.48       0.000       0.000    
   3    0.000       0.000       0.000       6.261       5.940       4.033       3.204       3.783       5.202       5.752    
        5.400       4.355       2.754     -0.3464       14.14       26.06       37.02       43.74       0.000       0.000    
   4    0.000       0.000       3.552       3.870       2.706     -0.3287     -0.1059     -0.1520     -0.3214     -0.2773    
      -0.2814     -0.2661       1.347     -0.3508       19.07       32.33       42.07       50.70       0.000       0.000    
   5    0.000       0.000      0.6505      3.8778E-02 -0.5052     -1.9025E-02   4.957       8.274       11.42       12.09    
        9.948      0.1068     -0.2976       1.279       26.10       39.62       53.33       64.40       75.33       0.000    
   6    0.000     -0.4309     -0.4813     -0.2583       2.451       10.75       16.03       19.68       22.30       23.85    
        23.59       21.54       22.95       28.14       40.93       53.38       67.74       72.83       77.78       0.000    
   7    0.000       9.759       11.34       13.19       16.31       21.32       25.72       29.12       31.15       34.14    
        35.76       37.01       40.00       45.55       54.83       65.08       74.12       80.17       0.000       0.000    
   8    0.000       15.97       20.28       22.91       25.93       29.73       33.50       36.85       39.70       42.62    
        45.22       48.00       51.90       57.50       64.97       73.14       80.63       88.72       0.000       0.000    
   9    0.000       0.000       28.03       29.70       32.27       35.47       38.88       42.18       45.32       48.44    
        51.58       55.07       59.42       64.94       71.63       78.96       86.41       94.38       102.2       107.1    
  10    0.000       0.000       31.78       33.13       35.44       38.38       41.61       44.88       48.11       51.35    
        54.74       58.52       63.04       68.52       74.92       81.91       89.13       96.37       102.7       106.4    

 HEAD WILL BE SAVED ON UNIT   51 AT END OF TIME STEP   21, STRESS PERIOD    2

 DRAWDOWN WILL BE SAVED ON UNIT   52 AT END OF TIME STEP   21, STRESS PERIOD    2
1
  VOLUMETRIC BUDGET FOR ENTIRE MODEL AT END OF TIME STEP   21, STRESS PERIOD   2
  ------------------------------------------------------------------------------

     CUMULATIVE VOLUMES      L**3       RATES FOR THIS TIME STEP      L**3/T
     ------------------                 ------------------------

           IN:                                      IN:
           ---                                      ---
             STORAGE =      100120.9922               STORAGE =        4185.0991
       CONSTANT HEAD =           0.0000         CONSTANT HEAD =           0.0000
               WELLS =           0.0000                 WELLS =           0.0000
       RIVER LEAKAGE =           0.0000         RIVER LEAKAGE =           0.0000
            RECHARGE =      723115.8125              RECHARGE =       33296.1602

            TOTAL IN =      823236.8125              TOTAL IN =       37481.2578

          OUT:                                     OUT:
          ----                                     ----
             STORAGE =      170365.0000               STORAGE =        8049.8218
       CONSTANT HEAD =           0.0000         CONSTANT HEAD =           0.0000
               WELLS =       11207.8691                 WELLS =         509.4487
       RIVER LEAKAGE =      641681.0625         RIVER LEAKAGE =       28922.9414
            RECHARGE =           0.0000              RECHARGE =           0.0000

           TOTAL OUT =      823253.9375             TOTAL OUT =       37482.2109

            IN - OUT =         -17.1250              IN - OUT =          -0.9531

 PERCENT DISCREPANCY =          -0.00     PERCENT DISCREPANCY =          -0.00






         TIME SUMMARY AT END OF TIME STEP   21 IN STRESS PERIOD    2
                    SECONDS     MINUTES      HOURS       DAYS        YEARS
                    -----------------------------------------------------------
   TIME STEP LENGTH  86400.      1440.0      24.000      1.0000     2.73785E-03
 STRESS PERIOD TIME 1.81440E+06  30240.      504.00      21.000     5.74949E-02
         TOTAL TIME 1.90080E+06  31680.      528.00      22.000     6.02327E-02
1

 SOLVING FOR HEAD 

    ------------------------------------------------
       NWT REQUIRED            3 OUTER ITERATIONS 
       AND A TOTAL OF          3 INNER ITERATIONS.
    ------------------------------------------------

 OUTPUT CONTROL FOR STRESS PERIOD    2   TIME STEP   22
    SAVE HEAD FOR ALL LAYERS
    SAVE DRAWDOWN FOR ALL LAYERS
    SAVE BUDGET
    PRINT HEAD FOR ALL LAYERS
    PRINT BUDGET
1
              HEAD IN LAYER   1 AT END OF TIME STEP  22 IN STRESS PERIOD    2
  ---------------------------------------------------------------------------

            1           2           3           4           5           6           7           8           9          10
           11          12          13          14          15          16          17          18          19          20
 ........................................................................................................................
   1    0.000       0.000       0.000       0.000       0.000       10.49       10.34       10.78       11.46       11.40    
        10.15       7.281       2.190     -0.1915       5.817       21.54       31.89       37.42       0.000       0.000    
   2    0.000       0.000       0.000       0.000       8.293       7.875       7.082       7.770       9.263       9.544    
        8.676       6.500       2.544     -0.2209       8.390       23.29       33.58       39.48       0.000       0.000    
   3    0.000       0.000       0.000       6.263       5.942       4.034       3.205       3.784       5.203       5.753    
        5.402       4.356       2.756     -0.3474       14.14       26.06       37.02       43.74       0.000       0.000    
   4    0.000       0.000       3.554       3.872       2.707     -0.3293     -0.1063     -0.1527     -0.3223     -0.2782    
      -0.2822     -0.2665       1.348     -0.3519       19.07       32.33       42.07       50.70       0.000       0.000    
   5    0.000       0.000      0.6513      3.8694E-02 -0.5062     -1.9419E-02   4.958       8.275       11.42       12.10    
        9.949      0.1053     -0.2988       1.278       26.10       39.63       53.34       64.40       75.33       0.000    
   6    0.000     -0.4319     -0.4826     -0.2591       2.451       10.75       16.03       19.69       22.30       23.85    
        23.59       21.54       22.96       28.14       40.94       53.39       67.74       72.83       77.78       0.000    
   7    0.000       9.761       11.34       13.19       16.32       21.32       25.73       29.12       31.15       34.14    
        35.76       37.01       40.00       45.55       54.83       65.08       74.12       80.17       0.000       0.000    
   8    0.000       15.97       20.28       22.91       25.93       29.73       33.50       36.85       39.71       42.62    
        45.23       48.00       51.90       57.50       64.97       73.14       80.64       88.73       0.000       0.000    
   9    0.000       0.000       28.03       29.70       32.27       35.48       38.88       42.19       45.32       48.44    
        51.58       55.07       59.42       64.94       71.63       78.96       86.41       94.38       102.2       107.1    
  10    0.000       0.000       31.78       33.13       35.44       38.38       41.61       44.88       48.11       51.36    
        54.74       58.52       63.05       68.52       74.92       81.91       89.14       96.37       102.7       106.4    

 HEAD WILL BE SAVED ON UNIT   51 AT END OF TIME STEP   22, STRESS PERIOD    2

 DRAWDOWN WILL BE SAVED ON UNIT   52 AT END OF TIME STEP   22, STRESS PERIOD    2
1
  VOLUMETRIC BUDGET FOR ENTIRE MODEL AT END OF TIME STEP   22, STRESS PERIOD   2
  ------------------------------------------------------------------------------

     CUMULATIVE VOLUMES      L**3       RATES FOR THIS TIME STEP      L**3/T
     ------------------                 ------------------------

           IN:                                      IN:
           ---                                      ---
             STORAGE =      104254.5625               STORAGE =        4133.5669
       CONSTANT HEAD =           0.0000         CONSTANT HEAD =           0.0000
               WELLS =           0.0000                 WELLS =           0.0000
       RIVER LEAKAGE =           0.0000         RIVER LEAKAGE =           0.0000
            RECHARGE =      756412.0000              RECHARGE =       33296.1602

            TOTAL IN =      860666.5625              TOTAL IN =       37429.7266

          OUT:                                     OUT:
          ----                                     ----
             STORAGE =      178408.9531               STORAGE =        8043.9463
       CONSTANT HEAD =           0.0000         CONSTANT HEAD =           0.0000
               WELLS =       11717.3174                 WELLS =         509.4487
       RIVER LEAKAGE =      670558.3750         RIVER LEAKAGE =       28877.2969
            RECHARGE =           0.0000              RECHARGE =           0.0000

           TOTAL OUT =      860684.6250             TOTAL OUT =       37430.6914

            IN - OUT =         -18.0625              IN - OUT =          -0.9648

 PERCENT DISCREPANCY =          -0.00     PERCENT DISCREPANCY =          -0.00






         TIME SUMMARY AT END OF TIME STEP   22 IN STRESS PERIOD    2
                    SECONDS     MINUTES      HOURS       DAYS        YEARS
                    -----------------------------------------------------------
   TIME STEP LENGTH  86400.      1440.0      24.000      1.0000     2.73785E-03
 STRESS PERIOD TIME 1.90080E+06  31680.      528.00      22.000     6.02327E-02
         TOTAL TIME 1.98720E+06  33120.      552.00      23.000     6.29706E-02
1

 SOLVING FOR HEAD 

    ------------------------------------------------
       NWT REQUIRED            3 OUTER ITERATIONS 
       AND A TOTAL OF          3 INNER ITERATIONS.
    ------------------------------------------------

 OUTPUT CONTROL FOR STRESS PERIOD    2   TIME STEP   23
    SAVE HEAD FOR ALL LAYERS
    SAVE DRAWDOWN FOR ALL LAYERS
    SAVE BUDGET
    PRINT HEAD FOR ALL LAYERS
    PRINT BUDGET
1
              HEAD IN LAYER   1 AT END OF TIME STEP  23 IN STRESS PERIOD    2
  ---------------------------------------------------------------------------

            1           2           3           4           5           6           7           8           9          10
           11          12          13          14          15          16          17          18          19          20
 ........................................................................................................................
   1    0.000       0.000       0.000       0.000       0.000       10.49       10.34       10.78       11.46       11.40    
        10.15       7.283       2.191     -0.1920       5.818       21.54       31.89       37.43       0.000       0.000    
   2    0.000       0.000       0.000       0.000       8.295       7.877       7.084       7.772       9.265       9.546    
        8.677       6.501       2.545     -0.2215       8.391       23.29       33.58       39.48       0.000       0.000    
   3    0.000       0.000       0.000       6.264       5.943       4.036       3.207       3.786       5.205       5.754    
        5.403       4.358       2.757     -0.3482       14.14       26.06       37.02       43.74       0.000       0.000    
   4    0.000       0.000       3.555       3.873       2.708     -0.3300     -0.1068     -0.1533     -0.3232     -0.2790    
      -0.2830     -0.2668       1.350     -0.3530       19.07       32.33       42.08       50.70       0.000       0.000    
   5    0.000       0.000      0.6521      3.8613E-02 -0.5072     -1.9811E-02   4.960       8.277       11.42       12.10    
        9.951      0.1039     -0.3000       1.276       26.10       39.63       53.34       64.41       75.33       0.000    
   6    0.000     -0.4328     -0.4839     -0.2598       2.452       10.75       16.04       19.69       22.30       23.85    
        23.59       21.54       22.96       28.15       40.94       53.39       67.74       72.83       77.78       0.000    
   7    0.000       9.762       11.35       13.20       16.32       21.33       25.73       29.12       31.15       34.14    
        35.76       37.01       40.00       45.55       54.83       65.08       74.12       80.17       0.000       0.000    
   8    0.000       15.97       20.28       22.91       25.94       29.73       33.50       36.85       39.71       42.63    
        45.23       48.00       51.91       57.50       64.97       73.14       80.64       88.73       0.000       0.000    
   9    0.000       0.000       28.03       29.71       32.27       35.48       38.88       42.19       45.32       48.44    
        51.58       55.08       59.42       64.94       71.63       78.97       86.41       94.38       102.2       107.1    
  10    0.000       0.000       31.79       33.14       35.45       38.39       41.61       44.89       48.11       51.36    
        54.74       58.52       63.05       68.52       74.92       81.91       89.14       96.37       102.7       106.4    

 HEAD WILL BE SAVED ON UNIT   51 AT END OF TIME STEP   23, STRESS PERIOD    2

 DRAWDOWN WILL BE SAVED ON UNIT   52 AT END OF TIME STEP   23, STRESS PERIOD    2
1
  VOLUMETRIC BUDGET FOR ENTIRE MODEL AT END OF TIME STEP   23, STRESS PERIOD   2
  ------------------------------------------------------------------------------

     CUMULATIVE VOLUMES      L**3       RATES FOR THIS TIME STEP      L**3/T
     ------------------                 ------------------------

           IN:                                      IN:
           ---                                      ---
             STORAGE =      108337.3828               STORAGE =        4082.8228
       CONSTANT HEAD =           0.0000         CONSTANT HEAD =           0.0000
               WELLS =           0.0000                 WELLS =           0.0000
       RIVER LEAKAGE =           0.0000         RIVER LEAKAGE =           0.0000
            RECHARGE =      789708.1875              RECHARGE =       33296.1602

            TOTAL IN =      898045.5625              TOTAL IN =       37378.9844

          OUT:                                     OUT:
          ----                                     ----
             STORAGE =      186447.0781               STORAGE =        8038.1187
       CONSTANT HEAD =           0.0000         CONSTANT HEAD =           0.0000
               WELLS =       12226.7656                 WELLS =         509.4487
       RIVER LEAKAGE =      699390.7500         RIVER LEAKAGE =       28832.3906
            RECHARGE =           0.0000              RECHARGE =           0.0000

           TOTAL OUT =      898064.6250             TOTAL OUT =       37379.9570

            IN - OUT =         -19.0625              IN - OUT =          -0.9727

 PERCENT DISCREPANCY =          -0.00     PERCENT DISCREPANCY =          -0.00






         TIME SUMMARY AT END OF TIME STEP   23 IN STRESS PERIOD    2
                    SECONDS     MINUTES      HOURS       DAYS        YEARS
                    -----------------------------------------------------------
   TIME STEP LENGTH  86400.      1440.0      24.000      1.0000     2.73785E-03
 STRESS PERIOD TIME 1.98720E+06  33120.      552.00      23.000     6.29706E-02
         TOTAL TIME 2.07360E+06  34560.      576.00      24.000     6.57084E-02
1

 SOLVING FOR HEAD 

    ------------------------------------------------
       NWT REQUIRED            3 OUTER ITERATIONS 
       AND A TOTAL OF          3 INNER ITERATIONS.
    ------------------------------------------------

 OUTPUT CONTROL FOR STRESS PERIOD    2   TIME STEP   24
    SAVE HEAD FOR ALL LAYERS
    SAVE DRAWDOWN FOR ALL LAYERS
    SAVE BUDGET
    PRINT HEAD FOR ALL LAYERS
    PRINT BUDGET
1
              HEAD IN LAYER   1 AT END OF TIME STEP  24 IN STRESS PERIOD    2
  ---------------------------------------------------------------------------

            1           2           3           4           5           6           7           8           9          10
           11          12          13          14          15          16          17          18          19          20
 ........................................................................................................................
   1    0.000       0.000       0.000       0.000       0.000       10.49       10.35       10.78       11.47       11.40    
        10.15       7.284       2.193     -0.1924       5.819       21.54       31.89       37.43       0.000       0.000    
   2    0.000       0.000       0.000       0.000       8.297       7.878       7.085       7.773       9.267       9.547    
        8.679       6.503       2.547     -0.2220       8.393       23.29       33.58       39.49       0.000       0.000    
   3    0.000       0.000       0.000       6.266       5.945       4.037       3.208       3.787       5.206       5.756    
        5.405       4.359       2.759     -0.3491       14.14       26.06       37.03       43.75       0.000       0.000    
   4    0.000       0.000       3.557       3.875       2.710     -0.3306     -0.1073     -0.1539     -0.3241     -0.2799    
      -0.2837     -0.2671       1.351     -0.3541       19.07       32.34       42.08       50.71       0.000       0.000    
   5    0.000       0.000      0.6529      3.8533E-02 -0.5082     -2.0201E-02   4.961       8.278       11.42       12.10    
        9.952      0.1027     -0.3012       1.275       26.10       39.63       53.34       64.41       75.33       0.000    
   6    0.000     -0.4337     -0.4852     -0.2606       2.452       10.75       16.04       19.69       22.30       23.85    
        23.60       21.55       22.96       28.15       40.94       53.39       67.75       72.83       77.78       0.000    
   7    0.000       9.764       11.35       13.20       16.32       21.33       25.73       29.12       31.15       34.15    
        35.76       37.01       40.01       45.55       54.83       65.08       74.13       80.18       0.000       0.000    
   8    0.000       15.97       20.28       22.92       25.94       29.73       33.50       36.86       39.71       42.63    
        45.23       48.01       51.91       57.50       64.97       73.14       80.64       88.73       0.000       0.000    
   9    0.000       0.000       28.03       29.71       32.28       35.48       38.88       42.19       45.32       48.44    
        51.58       55.08       59.42       64.94       71.63       78.97       86.41       94.38       102.2       107.1    
  10    0.000       0.000       31.79       33.14       35.45       38.39       41.62       44.89       48.11       51.36    
        54.74       58.53       63.05       68.53       74.92       81.91       89.14       96.38       102.7       106.4    

 HEAD WILL BE SAVED ON UNIT   51 AT END OF TIME STEP   24, STRESS PERIOD    2

 DRAWDOWN WILL BE SAVED ON UNIT   52 AT END OF TIME STEP   24, STRESS PERIOD    2
1
  VOLUMETRIC BUDGET FOR ENTIRE MODEL AT END OF TIME STEP   24, STRESS PERIOD   2
  ------------------------------------------------------------------------------

     CUMULATIVE VOLUMES      L**3       RATES FOR THIS TIME STEP      L**3/T
     ------------------                 ------------------------

           IN:                                      IN:
           ---                                      ---
             STORAGE =      112370.2344               STORAGE =        4032.8481
       CONSTANT HEAD =           0.0000         CONSTANT HEAD =           0.0000
               WELLS =           0.0000                 WELLS =           0.0000
       RIVER LEAKAGE =           0.0000         RIVER LEAKAGE =           0.0000
            RECHARGE =      823004.3750              RECHARGE =       33296.1602

            TOTAL IN =      935374.6250              TOTAL IN =       37329.0078

          OUT:                                     OUT:
          ----                                     ----
             STORAGE =      194479.4219               STORAGE =        8032.3389
       CONSTANT HEAD =           0.0000         CONSTANT HEAD =           0.0000
               WELLS =       12736.2139                 WELLS =         509.4487
       RIVER LEAKAGE =      728178.9375         RIVER LEAKAGE =       28788.2070
            RECHARGE =           0.0000              RECHARGE =           0.0000

           TOTAL OUT =      935394.5625             TOTAL OUT =       37329.9922

            IN - OUT =         -19.9375              IN - OUT =          -0.9844

 PERCENT DISCREPANCY =          -0.00     PERCENT DISCREPANCY =          -0.00






         TIME SUMMARY AT END OF TIME STEP   24 IN STRESS PERIOD    2
                    SECONDS     MINUTES      HOURS       DAYS        YEARS
                    -----------------------------------------------------------
   TIME STEP LENGTH  86400.      1440.0      24.000      1.0000     2.73785E-03
 STRESS PERIOD TIME 2.07360E+06  34560.      576.00      24.000     6.57084E-02
         TOTAL TIME 2.16000E+06  36000.      600.00      25.000     6.84463E-02
1

 SOLVING FOR HEAD 

    ------------------------------------------------
       NWT REQUIRED            3 OUTER ITERATIONS 
       AND A TOTAL OF          3 INNER ITERATIONS.
    ------------------------------------------------

 OUTPUT CONTROL FOR STRESS PERIOD    2   TIME STEP   25
    SAVE HEAD FOR ALL LAYERS
    SAVE DRAWDOWN FOR ALL LAYERS
    SAVE BUDGET
    PRINT HEAD FOR ALL LAYERS
    PRINT BUDGET
1
              HEAD IN LAYER   1 AT END OF TIME STEP  25 IN STRESS PERIOD    2
  ---------------------------------------------------------------------------

            1           2           3           4           5           6           7           8           9          10
           11          12          13          14          15          16          17          18          19          20
 ........................................................................................................................
   1    0.000       0.000       0.000       0.000       0.000       10.49       10.35       10.78       11.47       11.40    
        10.16       7.286       2.194     -0.1928       5.821       21.54       31.89       37.43       0.000       0.000    
   2    0.000       0.000       0.000       0.000       8.298       7.880       7.087       7.775       9.268       9.549    
        8.680       6.504       2.548     -0.2226       8.394       23.29       33.59       39.49       0.000       0.000    
   3    0.000       0.000       0.000       6.267       5.946       4.039       3.209       3.789       5.208       5.757    
        5.406       4.361       2.760     -0.3500       14.15       26.07       37.03       43.75       0.000       0.000    
   4    0.000       0.000       3.558       3.876       2.711     -0.3312     -0.1077     -0.1546     -0.3250     -0.2807    
      -0.2845     -0.2674       1.352     -0.3551       19.08       32.34       42.08       50.71       0.000       0.000    
   5    0.000       0.000      0.6536      3.8456E-02 -0.5092     -2.0587E-02   4.962       8.279       11.43       12.10    
        9.954      0.1014     -0.3023       1.274       26.10       39.63       53.34       64.41       75.33       0.000    
   6    0.000     -0.4347     -0.4864     -0.2614       2.452       10.75       16.04       19.69       22.30       23.85    
        23.60       21.55       22.96       28.15       40.94       53.39       67.75       72.83       77.79       0.000    
   7    0.000       9.765       11.35       13.20       16.32       21.33       25.73       29.13       31.15       34.15    
        35.76       37.01       40.01       45.56       54.84       65.08       74.13       80.18       0.000       0.000    
   8    0.000       15.98       20.28       22.92       25.94       29.73       33.50       36.86       39.71       42.63    
        45.23       48.01       51.91       57.51       64.97       73.15       80.64       88.73       0.000       0.000    
   9    0.000       0.000       28.04       29.71       32.28       35.48       38.88       42.19       45.32       48.44    
        51.58       55.08       59.42       64.95       71.64       78.97       86.41       94.38       102.2       107.1    
  10    0.000       0.000       31.79       33.14       35.45       38.39       41.62       44.89       48.11       51.36    
        54.74       58.53       63.05       68.53       74.92       81.92       89.14       96.38       102.7       106.4    

 HEAD WILL BE SAVED ON UNIT   51 AT END OF TIME STEP   25, STRESS PERIOD    2

 DRAWDOWN WILL BE SAVED ON UNIT   52 AT END OF TIME STEP   25, STRESS PERIOD    2
1
  VOLUMETRIC BUDGET FOR ENTIRE MODEL AT END OF TIME STEP   25, STRESS PERIOD   2
  ------------------------------------------------------------------------------

     CUMULATIVE VOLUMES      L**3       RATES FOR THIS TIME STEP      L**3/T
     ------------------                 ------------------------

           IN:                                      IN:
           ---                                      ---
             STORAGE =      116353.8594               STORAGE =        3983.6255
       CONSTANT HEAD =           0.0000         CONSTANT HEAD =           0.0000
               WELLS =           0.0000                 WELLS =           0.0000
       RIVER LEAKAGE =           0.0000         RIVER LEAKAGE =           0.0000
            RECHARGE =      856300.5625              RECHARGE =       33296.1602

            TOTAL IN =      972654.4375              TOTAL IN =       37279.7852

          OUT:                                     OUT:
          ----                                     ----
             STORAGE =      202506.0312               STORAGE =        8026.6055
       CONSTANT HEAD =           0.0000         CONSTANT HEAD =           0.0000
               WELLS =       13245.6621                 WELLS =         509.4487
       RIVER LEAKAGE =      756923.6875         RIVER LEAKAGE =       28744.7305
            RECHARGE =           0.0000              RECHARGE =           0.0000

           TOTAL OUT =      972675.3750             TOTAL OUT =       37280.7852

            IN - OUT =         -20.9375              IN - OUT =          -1.0000

 PERCENT DISCREPANCY =          -0.00     PERCENT DISCREPANCY =          -0.00






         TIME SUMMARY AT END OF TIME STEP   25 IN STRESS PERIOD    2
                    SECONDS     MINUTES      HOURS       DAYS        YEARS
                    -----------------------------------------------------------
   TIME STEP LENGTH  86400.      1440.0      24.000      1.0000     2.73785E-03
 STRESS PERIOD TIME 2.16000E+06  36000.      600.00      25.000     6.84463E-02
         TOTAL TIME 2.24640E+06  37440.      624.00      26.000     7.11841E-02
1

 SOLVING FOR HEAD 

    ------------------------------------------------
       NWT REQUIRED            3 OUTER ITERATIONS 
       AND A TOTAL OF          3 INNER ITERATIONS.
    ------------------------------------------------

 OUTPUT CONTROL FOR STRESS PERIOD    2   TIME STEP   26
    SAVE HEAD FOR ALL LAYERS
    SAVE DRAWDOWN FOR ALL LAYERS
    SAVE BUDGET
    PRINT HEAD FOR ALL LAYERS
    PRINT BUDGET
1
              HEAD IN LAYER   1 AT END OF TIME STEP  26 IN STRESS PERIOD    2
  ---------------------------------------------------------------------------

            1           2           3           4           5           6           7           8           9          10
           11          12          13          14          15          16          17          18          19          20
 ........................................................................................................................
   1    0.000       0.000       0.000       0.000       0.000       10.49       10.35       10.79       11.47       11.40    
        10.16       7.288       2.195     -0.1932       5.822       21.54       31.89       37.43       0.000       0.000    
   2    0.000       0.000       0.000       0.000       8.300       7.881       7.088       7.777       9.270       9.550    
        8.682       6.506       2.549     -0.2231       8.396       23.30       33.59       39.49       0.000       0.000    
   3    0.000       0.000       0.000       6.269       5.948       4.040       3.210       3.790       5.209       5.759    
        5.408       4.362       2.761     -0.3509       14.15       26.07       37.03       43.75       0.000       0.000    
   4    0.000       0.000       3.560       3.878       2.713     -0.3319     -0.1082     -0.1552     -0.3259     -0.2815    
      -0.2852     -0.2677       1.354     -0.3562       19.08       32.34       42.08       50.71       0.000       0.000    
   5    0.000       0.000      0.6544      3.8382E-02 -0.5101     -2.0972E-02   4.964       8.281       11.43       12.10    
        9.955      0.1003     -0.3034       1.273       26.10       39.63       53.34       64.41       75.33       0.000    
   6    0.000     -0.4356     -0.4876     -0.2621       2.453       10.75       16.04       19.69       22.30       23.85    
        23.60       21.55       22.96       28.15       40.94       53.39       67.75       72.83       77.79       0.000    
   7    0.000       9.766       11.35       13.20       16.32       21.33       25.73       29.13       31.16       34.15    
        35.76       37.01       40.01       45.56       54.84       65.08       74.13       80.18       0.000       0.000    
   8    0.000       15.98       20.29       22.92       25.94       29.74       33.51       36.86       39.71       42.63    
        45.23       48.01       51.91       57.51       64.98       73.15       80.64       88.73       0.000       0.000    
   9    0.000       0.000       28.04       29.71       32.28       35.48       38.88       42.19       45.32       48.44    
        51.59       55.08       59.43       64.95       71.64       78.97       86.42       94.38       102.2       107.1    
  10    0.000       0.000       31.79       33.14       35.45       38.39       41.62       44.89       48.12       51.36    
        54.74       58.53       63.05       68.53       74.92       81.92       89.14       96.38       102.7       106.4    

 HEAD WILL BE SAVED ON UNIT   51 AT END OF TIME STEP   26, STRESS PERIOD    2

 DRAWDOWN WILL BE SAVED ON UNIT   52 AT END OF TIME STEP   26, STRESS PERIOD    2
1
  VOLUMETRIC BUDGET FOR ENTIRE MODEL AT END OF TIME STEP   26, STRESS PERIOD   2
  ------------------------------------------------------------------------------

     CUMULATIVE VOLUMES      L**3       RATES FOR THIS TIME STEP      L**3/T
     ------------------                 ------------------------

           IN:                                      IN:
           ---                                      ---
             STORAGE =      120289.0000               STORAGE =        3935.1377
       CONSTANT HEAD =           0.0000         CONSTANT HEAD =           0.0000
               WELLS =           0.0000                 WELLS =           0.0000
       RIVER LEAKAGE =           0.0000         RIVER LEAKAGE =           0.0000
            RECHARGE =      889596.7500              RECHARGE =       33296.1602

            TOTAL IN =     1009885.7500              TOTAL IN =       37231.2969

          OUT:                                     OUT:
          ----                                     ----
             STORAGE =      210526.9531               STORAGE =        8020.9175
       CONSTANT HEAD =           0.0000         CONSTANT HEAD =           0.0000
               WELLS =       13755.1104                 WELLS =         509.4487
       RIVER LEAKAGE =      785625.6250         RIVER LEAKAGE =       28701.9414
            RECHARGE =           0.0000              RECHARGE =           0.0000

           TOTAL OUT =     1009907.6875             TOTAL OUT =       37232.3086

            IN - OUT =         -21.9375              IN - OUT =          -1.0117

 PERCENT DISCREPANCY =          -0.00     PERCENT DISCREPANCY =          -0.00






         TIME SUMMARY AT END OF TIME STEP   26 IN STRESS PERIOD    2
                    SECONDS     MINUTES      HOURS       DAYS        YEARS
                    -----------------------------------------------------------
   TIME STEP LENGTH  86400.      1440.0      24.000      1.0000     2.73785E-03
 STRESS PERIOD TIME 2.24640E+06  37440.      624.00      26.000     7.11841E-02
         TOTAL TIME 2.33280E+06  38880.      648.00      27.000     7.39220E-02
1

 SOLVING FOR HEAD 

    ------------------------------------------------
       NWT REQUIRED            3 OUTER ITERATIONS 
       AND A TOTAL OF          3 INNER ITERATIONS.
    ------------------------------------------------

 OUTPUT CONTROL FOR STRESS PERIOD    2   TIME STEP   27
    SAVE HEAD FOR ALL LAYERS
    SAVE DRAWDOWN FOR ALL LAYERS
    SAVE BUDGET
    PRINT HEAD FOR ALL LAYERS
    PRINT BUDGET
1
              HEAD IN LAYER   1 AT END OF TIME STEP  27 IN STRESS PERIOD    2
  ---------------------------------------------------------------------------

            1           2           3           4           5           6           7           8           9          10
           11          12          13          14          15          16          17          18          19          20
 ........................................................................................................................
   1    0.000       0.000       0.000       0.000       0.000       10.50       10.35       10.79       11.47       11.40    
        10.16       7.289       2.197     -0.1936       5.823       21.54       31.89       37.43       0.000       0.000    
   2    0.000       0.000       0.000       0.000       8.301       7.883       7.090       7.778       9.271       9.552    
        8.683       6.507       2.551     -0.2237       8.397       23.30       33.59       39.49       0.000       0.000    
   3    0.000       0.000       0.000       6.271       5.950       4.041       3.212       3.791       5.211       5.760    
        5.409       4.364       2.763     -0.3517       14.15       26.07       37.03       43.75       0.000       0.000    
   4    0.000       0.000       3.561       3.879       2.714     -0.3325     -0.1086     -0.1558     -0.3267     -0.2823    
      -0.2859     -0.2681       1.355     -0.3572       19.08       32.34       42.08       50.71       0.000       0.000    
   5    0.000       0.000      0.6552      3.8309E-02 -0.5110     -2.1353E-02   4.965       8.282       11.43       12.10    
        9.956      9.9198E-02 -0.3045       1.272       26.11       39.63       53.34       64.41       75.34       0.000    
   6    0.000     -0.4365     -0.4888     -0.2629       2.453       10.76       16.04       19.69       22.31       23.85    
        23.60       21.55       22.96       28.15       40.94       53.39       67.75       72.83       77.79       0.000    
   7    0.000       9.768       11.35       13.20       16.32       21.33       25.73       29.13       31.16       34.15    
        35.76       37.02       40.01       45.56       54.84       65.09       74.13       80.18       0.000       0.000    
   8    0.000       15.98       20.29       22.92       25.94       29.74       33.51       36.86       39.71       42.63    
        45.23       48.01       51.91       57.51       64.98       73.15       80.64       88.73       0.000       0.000    
   9    0.000       0.000       28.04       29.71       32.28       35.48       38.89       42.19       45.33       48.45    
        51.59       55.08       59.43       64.95       71.64       78.97       86.42       94.39       102.2       107.1    
  10    0.000       0.000       31.79       33.14       35.45       38.39       41.62       44.89       48.12       51.36    
        54.75       58.53       63.05       68.53       74.93       81.92       89.14       96.38       102.7       106.4    

 HEAD WILL BE SAVED ON UNIT   51 AT END OF TIME STEP   27, STRESS PERIOD    2

 DRAWDOWN WILL BE SAVED ON UNIT   52 AT END OF TIME STEP   27, STRESS PERIOD    2
1
  VOLUMETRIC BUDGET FOR ENTIRE MODEL AT END OF TIME STEP   27, STRESS PERIOD   2
  ------------------------------------------------------------------------------

     CUMULATIVE VOLUMES      L**3       RATES FOR THIS TIME STEP      L**3/T
     ------------------                 ------------------------

           IN:                                      IN:
           ---                                      ---
             STORAGE =      124176.3672               STORAGE =        3887.3682
       CONSTANT HEAD =           0.0000         CONSTANT HEAD =           0.0000
               WELLS =           0.0000                 WELLS =           0.0000
       RIVER LEAKAGE =           0.0000         RIVER LEAKAGE =           0.0000
            RECHARGE =      922892.9375              RECHARGE =       33296.1602

            TOTAL IN =     1047069.3125              TOTAL IN =       37183.5273

          OUT:                                     OUT:
          ----                                     ----
             STORAGE =      218542.2344               STORAGE =        8015.2744
       CONSTANT HEAD =           0.0000         CONSTANT HEAD =           0.0000
               WELLS =       14264.5586                 WELLS =         509.4487
       RIVER LEAKAGE =      814285.4375         RIVER LEAKAGE =       28659.8242
            RECHARGE =           0.0000              RECHARGE =           0.0000

           TOTAL OUT =     1047092.2500             TOTAL OUT =       37184.5469

            IN - OUT =         -22.9375              IN - OUT =          -1.0195

 PERCENT DISCREPANCY =          -0.00     PERCENT DISCREPANCY =          -0.00






         TIME SUMMARY AT END OF TIME STEP   27 IN STRESS PERIOD    2
                    SECONDS     MINUTES      HOURS       DAYS        YEARS
                    -----------------------------------------------------------
   TIME STEP LENGTH  86400.      1440.0      24.000      1.0000     2.73785E-03
 STRESS PERIOD TIME 2.33280E+06  38880.      648.00      27.000     7.39220E-02
         TOTAL TIME 2.41920E+06  40320.      672.00      28.000     7.66598E-02
1

 SOLVING FOR HEAD 

    ------------------------------------------------
       NWT REQUIRED            3 OUTER ITERATIONS 
       AND A TOTAL OF          3 INNER ITERATIONS.
    ------------------------------------------------

 OUTPUT CONTROL FOR STRESS PERIOD    2   TIME STEP   28
    SAVE HEAD FOR ALL LAYERS
    SAVE DRAWDOWN FOR ALL LAYERS
    SAVE BUDGET
    PRINT HEAD FOR ALL LAYERS
    PRINT BUDGET
1
              HEAD IN LAYER   1 AT END OF TIME STEP  28 IN STRESS PERIOD    2
  ---------------------------------------------------------------------------

            1           2           3           4           5           6           7           8           9          10
           11          12          13          14          15          16          17          18          19          20
 ........................................................................................................................
   1    0.000       0.000       0.000       0.000       0.000       10.50       10.35       10.79       11.47       11.41    
        10.16       7.291       2.198     -0.1940       5.825       21.54       31.89       37.43       0.000       0.000    
   2    0.000       0.000       0.000       0.000       8.303       7.885       7.091       7.780       9.273       9.553    
        8.685       6.509       2.552     -0.2243       8.398       23.30       33.59       39.49       0.000       0.000    
   3    0.000       0.000       0.000       6.272       5.951       4.043       3.213       3.793       5.212       5.762    
        5.411       4.365       2.764     -0.3526       14.15       26.07       37.03       43.75       0.000       0.000    
   4    0.000       0.000       3.563       3.880       2.715     -0.3331     -0.1091     -0.1564     -0.3276     -0.2831    
      -0.2866     -0.2684       1.356     -0.3582       19.08       32.34       42.08       50.71       0.000       0.000    
   5    0.000       0.000      0.6559      3.8239E-02 -0.5119     -2.1732E-02   4.966       8.284       11.43       12.10    
        9.958      9.8173E-02 -0.3056       1.272       26.11       39.64       53.34       64.41       75.34       0.000    
   6    0.000     -0.4374     -0.4900     -0.2636       2.453       10.76       16.04       19.70       22.31       23.86    
        23.60       21.55       22.96       28.15       40.95       53.39       67.75       72.84       77.79       0.000    
   7    0.000       9.769       11.35       13.20       16.32       21.33       25.73       29.13       31.16       34.15    
        35.77       37.02       40.01       45.56       54.84       65.09       74.13       80.18       0.000       0.000    
   8    0.000       15.98       20.29       22.92       25.94       29.74       33.51       36.86       39.72       42.63    
        45.23       48.01       51.91       57.51       64.98       73.15       80.64       88.73       0.000       0.000    
   9    0.000       0.000       28.04       29.71       32.28       35.49       38.89       42.19       45.33       48.45    
        51.59       55.08       59.43       64.95       71.64       78.97       86.42       94.39       102.2       107.1    
  10    0.000       0.000       31.79       33.14       35.45       38.39       41.62       44.89       48.12       51.36    
        54.75       58.53       63.05       68.53       74.93       81.92       89.15       96.38       102.7       106.4    

 HEAD WILL BE SAVED ON UNIT   51 AT END OF TIME STEP   28, STRESS PERIOD    2

 DRAWDOWN WILL BE SAVED ON UNIT   52 AT END OF TIME STEP   28, STRESS PERIOD    2
1
  VOLUMETRIC BUDGET FOR ENTIRE MODEL AT END OF TIME STEP   28, STRESS PERIOD   2
  ------------------------------------------------------------------------------

     CUMULATIVE VOLUMES      L**3       RATES FOR THIS TIME STEP      L**3/T
     ------------------                 ------------------------

           IN:                                      IN:
           ---                                      ---
             STORAGE =      128016.6719               STORAGE =        3840.3010
       CONSTANT HEAD =           0.0000         CONSTANT HEAD =           0.0000
               WELLS =           0.0000                 WELLS =           0.0000
       RIVER LEAKAGE =           0.0000         RIVER LEAKAGE =           0.0000
            RECHARGE =      956189.1250              RECHARGE =       33296.1602

            TOTAL IN =     1084205.7500              TOTAL IN =       37136.4609

          OUT:                                     OUT:
          ----                                     ----
             STORAGE =      226551.9062               STORAGE =        8009.6753
       CONSTANT HEAD =           0.0000         CONSTANT HEAD =           0.0000
               WELLS =       14774.0068                 WELLS =         509.4487
       RIVER LEAKAGE =      842903.8125         RIVER LEAKAGE =       28618.3672
            RECHARGE =           0.0000              RECHARGE =           0.0000

           TOTAL OUT =     1084229.7500             TOTAL OUT =       37137.4922

            IN - OUT =         -24.0000              IN - OUT =          -1.0312

 PERCENT DISCREPANCY =          -0.00     PERCENT DISCREPANCY =          -0.00






         TIME SUMMARY AT END OF TIME STEP   28 IN STRESS PERIOD    2
                    SECONDS     MINUTES      HOURS       DAYS        YEARS
                    -----------------------------------------------------------
   TIME STEP LENGTH  86400.      1440.0      24.000      1.0000     2.73785E-03
 STRESS PERIOD TIME 2.41920E+06  40320.      672.00      28.000     7.66598E-02
         TOTAL TIME 2.50560E+06  41760.      696.00      29.000     7.93977E-02
1

 SOLVING FOR HEAD 

    ------------------------------------------------
       NWT REQUIRED            3 OUTER ITERATIONS 
       AND A TOTAL OF          3 INNER ITERATIONS.
    ------------------------------------------------

 OUTPUT CONTROL FOR STRESS PERIOD    2   TIME STEP   29
    SAVE HEAD FOR ALL LAYERS
    SAVE DRAWDOWN FOR ALL LAYERS
    SAVE BUDGET
    PRINT HEAD FOR ALL LAYERS
    PRINT BUDGET
1
              HEAD IN LAYER   1 AT END OF TIME STEP  29 IN STRESS PERIOD    2
  ---------------------------------------------------------------------------

            1           2           3           4           5           6           7           8           9          10
           11          12          13          14          15          16          17          18          19          20
 ........................................................................................................................
   1    0.000       0.000       0.000       0.000       0.000       10.50       10.35       10.79       11.47       11.41    
        10.16       7.292       2.199     -0.1944       5.826       21.55       31.90       37.44       0.000       0.000    
   2    0.000       0.000       0.000       0.000       8.304       7.886       7.093       7.781       9.274       9.555    
        8.687       6.510       2.554     -0.2248       8.400       23.30       33.59       39.49       0.000       0.000    
   3    0.000       0.000       0.000       6.274       5.953       4.044       3.214       3.794       5.214       5.763    
        5.412       4.367       2.766     -0.3534       14.15       26.07       37.03       43.75       0.000       0.000    
   4    0.000       0.000       3.564       3.882       2.717     -0.3337     -0.1095     -0.1570     -0.3284     -0.2839    
      -0.2873     -0.2687       1.357     -0.3592       19.08       32.34       42.08       50.71       0.000       0.000    
   5    0.000       0.000      0.6567      3.8171E-02 -0.5129     -2.2109E-02   4.968       8.285       11.43       12.11    
        9.959      9.7205E-02 -0.3067       1.271       26.11       39.64       53.35       64.41       75.34       0.000    
   6    0.000     -0.4382     -0.4912     -0.2644       2.454       10.76       16.05       19.70       22.31       23.86    
        23.60       21.55       22.97       28.15       40.95       53.40       67.75       72.84       77.79       0.000    
   7    0.000       9.771       11.35       13.20       16.33       21.34       25.74       29.13       31.16       34.15    
        35.77       37.02       40.01       45.56       54.84       65.09       74.13       80.18       0.000       0.000    
   8    0.000       15.98       20.29       22.92       25.95       29.74       33.51       36.86       39.72       42.64    
        45.24       48.01       51.92       57.51       64.98       73.15       80.65       88.74       0.000       0.000    
   9    0.000       0.000       28.04       29.71       32.28       35.49       38.89       42.20       45.33       48.45    
        51.59       55.09       59.43       64.95       71.64       78.98       86.42       94.39       102.2       107.1    
  10    0.000       0.000       31.79       33.15       35.45       38.39       41.62       44.90       48.12       51.37    
        54.75       58.53       63.06       68.53       74.93       81.92       89.15       96.38       102.8       106.4    

 HEAD WILL BE SAVED ON UNIT   51 AT END OF TIME STEP   29, STRESS PERIOD    2

 DRAWDOWN WILL BE SAVED ON UNIT   52 AT END OF TIME STEP   29, STRESS PERIOD    2
1
  VOLUMETRIC BUDGET FOR ENTIRE MODEL AT END OF TIME STEP   29, STRESS PERIOD   2
  ------------------------------------------------------------------------------

     CUMULATIVE VOLUMES      L**3       RATES FOR THIS TIME STEP      L**3/T
     ------------------                 ------------------------

           IN:                                      IN:
           ---                                      ---
             STORAGE =      131810.5938               STORAGE =        3793.9204
       CONSTANT HEAD =           0.0000         CONSTANT HEAD =           0.0000
               WELLS =           0.0000                 WELLS =           0.0000
       RIVER LEAKAGE =           0.0000         RIVER LEAKAGE =           0.0000
            RECHARGE =      989485.3125              RECHARGE =       33296.1602

            TOTAL IN =     1121295.8750              TOTAL IN =       37090.0820

          OUT:                                     OUT:
          ----                                     ----
             STORAGE =      234556.0312               STORAGE =        8004.1187
       CONSTANT HEAD =           0.0000         CONSTANT HEAD =           0.0000
               WELLS =       15283.4551                 WELLS =         509.4487
       RIVER LEAKAGE =      871481.3750         RIVER LEAKAGE =       28577.5547
            RECHARGE =           0.0000              RECHARGE =           0.0000

           TOTAL OUT =     1121320.8750             TOTAL OUT =       37091.1211

            IN - OUT =         -25.0000              IN - OUT =          -1.0391

 PERCENT DISCREPANCY =          -0.00     PERCENT DISCREPANCY =          -0.00






         TIME SUMMARY AT END OF TIME STEP   29 IN STRESS PERIOD    2
                    SECONDS     MINUTES      HOURS       DAYS        YEARS
                    -----------------------------------------------------------
   TIME STEP LENGTH  86400.      1440.0      24.000      1.0000     2.73785E-03
 STRESS PERIOD TIME 2.50560E+06  41760.      696.00      29.000     7.93977E-02
         TOTAL TIME 2.59200E+06  43200.      720.00      30.000     8.21355E-02
1

 SOLVING FOR HEAD 

    ------------------------------------------------
       NWT REQUIRED            3 OUTER ITERATIONS 
       AND A TOTAL OF          3 INNER ITERATIONS.
    ------------------------------------------------

 OUTPUT CONTROL FOR STRESS PERIOD    2   TIME STEP   30
    SAVE HEAD FOR ALL LAYERS
    SAVE DRAWDOWN FOR ALL LAYERS
    SAVE BUDGET
    PRINT HEAD FOR ALL LAYERS
    PRINT BUDGET
1
              HEAD IN LAYER   1 AT END OF TIME STEP  30 IN STRESS PERIOD    2
  ---------------------------------------------------------------------------

            1           2           3           4           5           6           7           8           9          10
           11          12          13          14          15          16          17          18          19          20
 ........................................................................................................................
   1    0.000       0.000       0.000       0.000       0.000       10.50       10.35       10.79       11.47       11.41    
        10.16       7.294       2.201     -0.1948       5.827       21.55       31.90       37.44       0.000       0.000    
   2    0.000       0.000       0.000       0.000       8.306       7.888       7.094       7.783       9.276       9.557    
        8.688       6.512       2.555     -0.2253       8.401       23.30       33.59       39.49       0.000       0.000    
   3    0.000       0.000       0.000       6.275       5.954       4.046       3.215       3.795       5.215       5.765    
        5.413       4.368       2.767     -0.3542       14.15       26.07       37.04       43.75       0.000       0.000    
   4    0.000       0.000       3.566       3.883       2.718     -0.3343     -0.1099     -0.1576     -0.3293     -0.2847    
      -0.2880     -0.2690       1.359     -0.3602       19.08       32.35       42.09       50.72       0.000       0.000    
   5    0.000       0.000      0.6574      3.8106E-02 -0.5138     -2.2483E-02   4.969       8.286       11.43       12.11    
        9.960      9.6292E-02 -0.3077       1.270       26.11       39.64       53.35       64.42       75.34       0.000    
   6    0.000     -0.4391     -0.4923     -0.2651       2.454       10.76       16.05       19.70       22.31       23.86    
        23.61       21.55       22.97       28.16       40.95       53.40       67.75       72.84       77.79       0.000    
   7    0.000       9.772       11.36       13.21       16.33       21.34       25.74       29.13       31.16       34.15    
        35.77       37.02       40.01       45.56       54.84       65.09       74.13       80.19       0.000       0.000    
   8    0.000       15.98       20.29       22.93       25.95       29.74       33.51       36.87       39.72       42.64    
        45.24       48.01       51.92       57.51       64.98       73.15       80.65       88.74       0.000       0.000    
   9    0.000       0.000       28.04       29.72       32.28       35.49       38.89       42.20       45.33       48.45    
        51.59       55.09       59.43       64.95       71.64       78.98       86.42       94.39       102.2       107.1    
  10    0.000       0.000       31.80       33.15       35.46       38.40       41.63       44.90       48.12       51.37    
        54.75       58.53       63.06       68.54       74.93       81.92       89.15       96.38       102.8       106.5    

 HEAD WILL BE SAVED ON UNIT   51 AT END OF TIME STEP   30, STRESS PERIOD    2

 DRAWDOWN WILL BE SAVED ON UNIT   52 AT END OF TIME STEP   30, STRESS PERIOD    2
1
  VOLUMETRIC BUDGET FOR ENTIRE MODEL AT END OF TIME STEP   30, STRESS PERIOD   2
  ------------------------------------------------------------------------------

     CUMULATIVE VOLUMES      L**3       RATES FOR THIS TIME STEP      L**3/T
     ------------------                 ------------------------

           IN:                                      IN:
           ---                                      ---
             STORAGE =      135558.8125               STORAGE =        3748.2122
       CONSTANT HEAD =           0.0000         CONSTANT HEAD =           0.0000
               WELLS =           0.0000                 WELLS =           0.0000
       RIVER LEAKAGE =           0.0000         RIVER LEAKAGE =           0.0000
            RECHARGE =     1022781.5000              RECHARGE =       33296.1602

            TOTAL IN =     1158340.2500              TOTAL IN =       37044.3711

          OUT:                                     OUT:
          ----                                     ----
             STORAGE =      242554.6406               STORAGE =        7998.6040
       CONSTANT HEAD =           0.0000         CONSTANT HEAD =           0.0000
               WELLS =       15792.9033                 WELLS =         509.4487
       RIVER LEAKAGE =      900018.7500         RIVER LEAKAGE =       28537.3711
            RECHARGE =           0.0000              RECHARGE =           0.0000

           TOTAL OUT =     1158366.2500             TOTAL OUT =       37045.4219

            IN - OUT =         -26.0000              IN - OUT =          -1.0508

 PERCENT DISCREPANCY =          -0.00     PERCENT DISCREPANCY =          -0.00






         TIME SUMMARY AT END OF TIME STEP   30 IN STRESS PERIOD    2
                    SECONDS     MINUTES      HOURS       DAYS        YEARS
                    -----------------------------------------------------------
   TIME STEP LENGTH  86400.      1440.0      24.000      1.0000     2.73785E-03
 STRESS PERIOD TIME 2.59200E+06  43200.      720.00      30.000     8.21355E-02
         TOTAL TIME 2.67840E+06  44640.      744.00      31.000     8.48734E-02
1

 SOLVING FOR HEAD 

    ------------------------------------------------
       NWT REQUIRED            3 OUTER ITERATIONS 
       AND A TOTAL OF          3 INNER ITERATIONS.
    ------------------------------------------------

 OUTPUT CONTROL FOR STRESS PERIOD    2   TIME STEP   31
    SAVE HEAD FOR ALL LAYERS
    SAVE DRAWDOWN FOR ALL LAYERS
    SAVE BUDGET
    PRINT HEAD FOR ALL LAYERS
    PRINT BUDGET
1
              HEAD IN LAYER   1 AT END OF TIME STEP  31 IN STRESS PERIOD    2
  ---------------------------------------------------------------------------

            1           2           3           4           5           6           7           8           9          10
           11          12          13          14          15          16          17          18          19          20
 ........................................................................................................................
   1    0.000       0.000       0.000       0.000       0.000       10.50       10.36       10.79       11.48       11.41    
        10.16       7.295       2.202     -0.1952       5.829       21.55       31.90       37.44       0.000       0.000    
   2    0.000       0.000       0.000       0.000       8.307       7.889       7.096       7.784       9.277       9.558    
        8.690       6.513       2.556     -0.2259       8.402       23.30       33.59       39.50       0.000       0.000    
   3    0.000       0.000       0.000       6.277       5.956       4.047       3.217       3.797       5.216       5.766    
        5.415       4.369       2.769     -0.3550       14.16       26.07       37.04       43.76       0.000       0.000    
   4    0.000       0.000       3.567       3.885       2.719     -0.3349     -0.1104     -0.1582     -0.3301     -0.2854    
      -0.2887     -0.2693       1.360     -0.3612       19.08       32.35       42.09       50.72       0.000       0.000    
   5    0.000       0.000      0.6581      3.8042E-02 -0.5146     -2.2854E-02   4.970       8.288       11.44       12.11    
        9.962      9.5430E-02 -0.3088       1.269       26.11       39.64       53.35       64.42       75.34       0.000    
   6    0.000     -0.4399     -0.4934     -0.2658       2.454       10.76       16.05       19.70       22.31       23.86    
        23.61       21.56       22.97       28.16       40.95       53.40       67.76       72.84       77.80       0.000    
   7    0.000       9.774       11.36       13.21       16.33       21.34       25.74       29.13       31.16       34.16    
        35.77       37.02       40.02       45.56       54.84       65.09       74.14       80.19       0.000       0.000    
   8    0.000       15.99       20.29       22.93       25.95       29.74       33.51       36.87       39.72       42.64    
        45.24       48.02       51.92       57.51       64.98       73.15       80.65       88.74       0.000       0.000    
   9    0.000       0.000       28.04       29.72       32.29       35.49       38.89       42.20       45.33       48.45    
        51.59       55.09       59.43       64.95       71.65       78.98       86.42       94.39       102.2       107.1    
  10    0.000       0.000       31.80       33.15       35.46       38.40       41.63       44.90       48.12       51.37    
        54.75       58.54       63.06       68.54       74.93       81.93       89.15       96.39       102.8       106.5    

 HEAD WILL BE SAVED ON UNIT   51 AT END OF TIME STEP   31, STRESS PERIOD    2

 DRAWDOWN WILL BE SAVED ON UNIT   52 AT END OF TIME STEP   31, STRESS PERIOD    2
1
  VOLUMETRIC BUDGET FOR ENTIRE MODEL AT END OF TIME STEP   31, STRESS PERIOD   2
  ------------------------------------------------------------------------------

     CUMULATIVE VOLUMES      L**3       RATES FOR THIS TIME STEP      L**3/T
     ------------------                 ------------------------

           IN:                                      IN:
           ---                                      ---
             STORAGE =      139261.9688               STORAGE =        3703.1614
       CONSTANT HEAD =           0.0000         CONSTANT HEAD =           0.0000
               WELLS =           0.0000                 WELLS =           0.0000
       RIVER LEAKAGE =           0.0000         RIVER LEAKAGE =           0.0000
            RECHARGE =     1056077.6250              RECHARGE =       33296.1602

            TOTAL IN =     1195339.6250              TOTAL IN =       36999.3203

          OUT:                                     OUT:
          ----                                     ----
             STORAGE =      250547.7656               STORAGE =        7993.1313
       CONSTANT HEAD =           0.0000         CONSTANT HEAD =           0.0000
               WELLS =       16302.3516                 WELLS =         509.4487
       RIVER LEAKAGE =      928516.5625         RIVER LEAKAGE =       28497.8027
            RECHARGE =           0.0000              RECHARGE =           0.0000

           TOTAL OUT =     1195366.7500             TOTAL OUT =       37000.3828

            IN - OUT =         -27.1250              IN - OUT =          -1.0625

 PERCENT DISCREPANCY =          -0.00     PERCENT DISCREPANCY =          -0.00






         TIME SUMMARY AT END OF TIME STEP   31 IN STRESS PERIOD    2
                    SECONDS     MINUTES      HOURS       DAYS        YEARS
                    -----------------------------------------------------------
   TIME STEP LENGTH  86400.      1440.0      24.000      1.0000     2.73785E-03
 STRESS PERIOD TIME 2.67840E+06  44640.      744.00      31.000     8.48734E-02
         TOTAL TIME 2.76480E+06  46080.      768.00      32.000     8.76112E-02
1

 SOLVING FOR HEAD 

    ------------------------------------------------
       NWT REQUIRED            3 OUTER ITERATIONS 
       AND A TOTAL OF          3 INNER ITERATIONS.
    ------------------------------------------------

 OUTPUT CONTROL FOR STRESS PERIOD    2   TIME STEP   32
    SAVE HEAD FOR ALL LAYERS
    SAVE DRAWDOWN FOR ALL LAYERS
    SAVE BUDGET
    PRINT HEAD FOR ALL LAYERS
    PRINT BUDGET
1
              HEAD IN LAYER   1 AT END OF TIME STEP  32 IN STRESS PERIOD    2
  ---------------------------------------------------------------------------

            1           2           3           4           5           6           7           8           9          10
           11          12          13          14          15          16          17          18          19          20
 ........................................................................................................................
   1    0.000       0.000       0.000       0.000       0.000       10.50       10.36       10.79       11.48       11.41    
        10.17       7.297       2.203     -0.1956       5.830       21.55       31.90       37.44       0.000       0.000    
   2    0.000       0.000       0.000       0.000       8.309       7.891       7.097       7.786       9.279       9.560    
        8.691       6.515       2.558     -0.2264       8.404       23.31       33.60       39.50       0.000       0.000    
   3    0.000       0.000       0.000       6.278       5.957       4.048       3.218       3.798       5.218       5.768    
        5.416       4.371       2.770     -0.3558       14.16       26.08       37.04       43.76       0.000       0.000    
   4    0.000       0.000       3.569       3.886       2.721     -0.3355     -0.1108     -0.1588     -0.3309     -0.2862    
      -0.2894     -0.2696       1.361     -0.3621       19.09       32.35       42.09       50.72       0.000       0.000    
   5    0.000       0.000      0.6589      3.7980E-02 -0.5155     -2.3224E-02   4.972       8.289       11.44       12.11    
        9.963      9.4617E-02 -0.3098       1.268       26.11       39.64       53.35       64.42       75.34       0.000    
   6    0.000     -0.4408     -0.4945     -0.2665       2.455       10.76       16.05       19.70       22.31       23.86    
        23.61       21.56       22.97       28.16       40.95       53.40       67.76       72.84       77.80       0.000    
   7    0.000       9.775       11.36       13.21       16.33       21.34       25.74       29.14       31.17       34.16    
        35.77       37.02       40.02       45.57       54.85       65.09       74.14       80.19       0.000       0.000    
   8    0.000       15.99       20.29       22.93       25.95       29.74       33.52       36.87       39.72       42.64    
        45.24       48.02       51.92       57.52       64.98       73.16       80.65       88.74       0.000       0.000    
   9    0.000       0.000       28.05       29.72       32.29       35.49       38.89       42.20       45.33       48.45    
        51.60       55.09       59.43       64.96       71.65       78.98       86.42       94.39       102.2       107.1    
  10    0.000       0.000       31.80       33.15       35.46       38.40       41.63       44.90       48.13       51.37    
        54.75       58.54       63.06       68.54       74.93       81.93       89.15       96.39       102.8       106.5    

 HEAD WILL BE SAVED ON UNIT   51 AT END OF TIME STEP   32, STRESS PERIOD    2

 DRAWDOWN WILL BE SAVED ON UNIT   52 AT END OF TIME STEP   32, STRESS PERIOD    2
1
  VOLUMETRIC BUDGET FOR ENTIRE MODEL AT END OF TIME STEP   32, STRESS PERIOD   2
  ------------------------------------------------------------------------------

     CUMULATIVE VOLUMES      L**3       RATES FOR THIS TIME STEP      L**3/T
     ------------------                 ------------------------

           IN:                                      IN:
           ---                                      ---
             STORAGE =      142920.7188               STORAGE =        3658.7546
       CONSTANT HEAD =           0.0000         CONSTANT HEAD =           0.0000
               WELLS =           0.0000                 WELLS =           0.0000
       RIVER LEAKAGE =           0.0000         RIVER LEAKAGE =           0.0000
            RECHARGE =     1089373.7500              RECHARGE =       33296.1602

            TOTAL IN =     1232294.5000              TOTAL IN =       36954.9141

          OUT:                                     OUT:
          ----                                     ----
             STORAGE =      258535.4688               STORAGE =        7987.6997
       CONSTANT HEAD =           0.0000         CONSTANT HEAD =           0.0000
               WELLS =       16811.8008                 WELLS =         509.4487
       RIVER LEAKAGE =      956975.3750         RIVER LEAKAGE =       28458.8379
            RECHARGE =           0.0000              RECHARGE =           0.0000

           TOTAL OUT =     1232322.6250             TOTAL OUT =       36955.9844

            IN - OUT =         -28.1250              IN - OUT =          -1.0703

 PERCENT DISCREPANCY =          -0.00     PERCENT DISCREPANCY =          -0.00






         TIME SUMMARY AT END OF TIME STEP   32 IN STRESS PERIOD    2
                    SECONDS     MINUTES      HOURS       DAYS        YEARS
                    -----------------------------------------------------------
   TIME STEP LENGTH  86400.      1440.0      24.000      1.0000     2.73785E-03
 STRESS PERIOD TIME 2.76480E+06  46080.      768.00      32.000     8.76112E-02
         TOTAL TIME 2.85120E+06  47520.      792.00      33.000     9.03491E-02
1

 SOLVING FOR HEAD 

    ------------------------------------------------
       NWT REQUIRED            3 OUTER ITERATIONS 
       AND A TOTAL OF          3 INNER ITERATIONS.
    ------------------------------------------------

 OUTPUT CONTROL FOR STRESS PERIOD    2   TIME STEP   33
    SAVE HEAD FOR ALL LAYERS
    SAVE DRAWDOWN FOR ALL LAYERS
    SAVE BUDGET
    PRINT HEAD FOR ALL LAYERS
    PRINT BUDGET
1
              HEAD IN LAYER   1 AT END OF TIME STEP  33 IN STRESS PERIOD    2
  ---------------------------------------------------------------------------

            1           2           3           4           5           6           7           8           9          10
           11          12          13          14          15          16          17          18          19          20
 ........................................................................................................................
   1    0.000       0.000       0.000       0.000       0.000       10.51       10.36       10.80       11.48       11.41    
        10.17       7.298       2.205     -0.1960       5.831       21.55       31.90       37.44       0.000       0.000    
   2    0.000       0.000       0.000       0.000       8.310       7.892       7.099       7.787       9.280       9.561    
        8.693       6.517       2.559     -0.2269       8.405       23.31       33.60       39.50       0.000       0.000    
   3    0.000       0.000       0.000       6.280       5.959       4.050       3.219       3.799       5.219       5.769    
        5.418       4.372       2.772     -0.3566       14.16       26.08       37.04       43.76       0.000       0.000    
   4    0.000       0.000       3.570       3.888       2.722     -0.3361     -0.1112     -0.1594     -0.3317     -0.2869    
      -0.2901     -0.2699       1.363     -0.3630       19.09       32.35       42.09       50.72       0.000       0.000    
   5    0.000       0.000      0.6596      3.7921E-02 -0.5164     -2.3590E-02   4.973       8.291       11.44       12.11    
        9.964      9.3850E-02 -0.3108       1.267       26.11       39.64       53.35       64.42       75.34       0.000    
   6    0.000     -0.4416     -0.4956     -0.2672       2.455       10.76       16.05       19.70       22.32       23.86    
        23.61       21.56       22.97       28.16       40.95       53.40       67.76       72.84       77.80       0.000    
   7    0.000       9.777       11.36       13.21       16.33       21.34       25.74       29.14       31.17       34.16    
        35.77       37.03       40.02       45.57       54.85       65.10       74.14       80.19       0.000       0.000    
   8    0.000       15.99       20.30       22.93       25.95       29.75       33.52       36.87       39.72       42.64    
        45.24       48.02       51.92       57.52       64.99       73.16       80.65       88.74       0.000       0.000    
   9    0.000       0.000       28.05       29.72       32.29       35.49       38.89       42.20       45.34       48.45    
        51.60       55.09       59.44       64.96       71.65       78.98       86.43       94.40       102.2       107.1    
  10    0.000       0.000       31.80       33.15       35.46       38.40       41.63       44.90       48.13       51.37    
        54.76       58.54       63.06       68.54       74.94       81.93       89.15       96.39       102.8       106.5    

 HEAD WILL BE SAVED ON UNIT   51 AT END OF TIME STEP   33, STRESS PERIOD    2

 DRAWDOWN WILL BE SAVED ON UNIT   52 AT END OF TIME STEP   33, STRESS PERIOD    2
1
  VOLUMETRIC BUDGET FOR ENTIRE MODEL AT END OF TIME STEP   33, STRESS PERIOD   2
  ------------------------------------------------------------------------------

     CUMULATIVE VOLUMES      L**3       RATES FOR THIS TIME STEP      L**3/T
     ------------------                 ------------------------

           IN:                                      IN:
           ---                                      ---
             STORAGE =      146535.7031               STORAGE =        3614.9783
       CONSTANT HEAD =           0.0000         CONSTANT HEAD =           0.0000
               WELLS =           0.0000                 WELLS =           0.0000
       RIVER LEAKAGE =           0.0000         RIVER LEAKAGE =           0.0000
            RECHARGE =     1122669.8750              RECHARGE =       33296.1602

            TOTAL IN =     1269205.6250              TOTAL IN =       36911.1367

          OUT:                                     OUT:
          ----                                     ----
             STORAGE =      266517.7812               STORAGE =        7982.3076
       CONSTANT HEAD =           0.0000         CONSTANT HEAD =           0.0000
               WELLS =       17321.2500                 WELLS =         509.4487
       RIVER LEAKAGE =      985395.8125         RIVER LEAKAGE =       28420.4629
            RECHARGE =           0.0000              RECHARGE =           0.0000

           TOTAL OUT =     1269234.8750             TOTAL OUT =       36912.2188

            IN - OUT =         -29.2500              IN - OUT =          -1.0820

 PERCENT DISCREPANCY =          -0.00     PERCENT DISCREPANCY =          -0.00






         TIME SUMMARY AT END OF TIME STEP   33 IN STRESS PERIOD    2
                    SECONDS     MINUTES      HOURS       DAYS        YEARS
                    -----------------------------------------------------------
   TIME STEP LENGTH  86400.      1440.0      24.000      1.0000     2.73785E-03
 STRESS PERIOD TIME 2.85120E+06  47520.      792.00      33.000     9.03491E-02
         TOTAL TIME 2.93760E+06  48960.      816.00      34.000     9.30869E-02
1

 SOLVING FOR HEAD 

    ------------------------------------------------
       NWT REQUIRED            3 OUTER ITERATIONS 
       AND A TOTAL OF          3 INNER ITERATIONS.
    ------------------------------------------------

 OUTPUT CONTROL FOR STRESS PERIOD    2   TIME STEP   34
    SAVE HEAD FOR ALL LAYERS
    SAVE DRAWDOWN FOR ALL LAYERS
    SAVE BUDGET
    PRINT HEAD FOR ALL LAYERS
    PRINT BUDGET
1
              HEAD IN LAYER   1 AT END OF TIME STEP  34 IN STRESS PERIOD    2
  ---------------------------------------------------------------------------

            1           2           3           4           5           6           7           8           9          10
           11          12          13          14          15          16          17          18          19          20
 ........................................................................................................................
   1    0.000       0.000       0.000       0.000       0.000       10.51       10.36       10.80       11.48       11.42    
        10.17       7.300       2.206     -0.1964       5.832       21.55       31.90       37.44       0.000       0.000    
   2    0.000       0.000       0.000       0.000       8.312       7.894       7.100       7.789       9.282       9.563    
        8.694       6.518       2.560     -0.2275       8.406       23.31       33.60       39.50       0.000       0.000    
   3    0.000       0.000       0.000       6.281       5.960       4.051       3.220       3.801       5.221       5.770    
        5.419       4.374       2.773     -0.3574       14.16       26.08       37.04       43.76       0.000       0.000    
   4    0.000       0.000       3.572       3.889       2.723     -0.3367     -0.1117     -0.1599     -0.3325     -0.2877    
      -0.2908     -0.2702       1.364     -0.3640       19.09       32.35       42.09       50.72       0.000       0.000    
   5    0.000       0.000      0.6603      3.7864E-02 -0.5172     -2.3954E-02   4.974       8.292       11.44       12.11    
        9.966      9.3126E-02 -0.3118       1.267       26.12       39.64       53.35       64.42       75.35       0.000    
   6    0.000     -0.4424     -0.4966     -0.2679       2.455       10.77       16.05       19.70       22.32       23.87    
        23.61       21.56       22.97       28.16       40.95       53.40       67.76       72.85       77.80       0.000    
   7    0.000       9.778       11.36       13.21       16.33       21.34       25.74       29.14       31.17       34.16    
        35.78       37.03       40.02       45.57       54.85       65.10       74.14       80.19       0.000       0.000    
   8    0.000       15.99       20.30       22.93       25.95       29.75       33.52       36.87       39.72       42.64    
        45.24       48.02       51.92       57.52       64.99       73.16       80.65       88.74       0.000       0.000    
   9    0.000       0.000       28.05       29.72       32.29       35.49       38.90       42.20       45.34       48.46    
        51.60       55.09       59.44       64.96       71.65       78.98       86.43       94.40       102.2       107.1    
  10    0.000       0.000       31.80       33.15       35.46       38.40       41.63       44.90       48.13       51.37    
        54.76       58.54       63.06       68.54       74.94       81.93       89.15       96.39       102.8       106.5    

 HEAD WILL BE SAVED ON UNIT   51 AT END OF TIME STEP   34, STRESS PERIOD    2

 DRAWDOWN WILL BE SAVED ON UNIT   52 AT END OF TIME STEP   34, STRESS PERIOD    2
1
  VOLUMETRIC BUDGET FOR ENTIRE MODEL AT END OF TIME STEP   34, STRESS PERIOD   2
  ------------------------------------------------------------------------------

     CUMULATIVE VOLUMES      L**3       RATES FOR THIS TIME STEP      L**3/T
     ------------------                 ------------------------

           IN:                                      IN:
           ---                                      ---
             STORAGE =      150107.5156               STORAGE =        3571.8191
       CONSTANT HEAD =           0.0000         CONSTANT HEAD =           0.0000
               WELLS =           0.0000                 WELLS =           0.0000
       RIVER LEAKAGE =           0.0000         RIVER LEAKAGE =           0.0000
            RECHARGE =     1155966.0000              RECHARGE =       33296.1602

            TOTAL IN =     1306073.5000              TOTAL IN =       36867.9805

          OUT:                                     OUT:
          ----                                     ----
             STORAGE =      274494.7500               STORAGE =        7976.9551
       CONSTANT HEAD =           0.0000         CONSTANT HEAD =           0.0000
               WELLS =       17830.6992                 WELLS =         509.4487
       RIVER LEAKAGE =     1013778.5000         RIVER LEAKAGE =       28382.6660
            RECHARGE =           0.0000              RECHARGE =           0.0000

           TOTAL OUT =     1306104.0000             TOTAL OUT =       36869.0703

            IN - OUT =         -30.5000              IN - OUT =          -1.0898

 PERCENT DISCREPANCY =          -0.00     PERCENT DISCREPANCY =          -0.00






         TIME SUMMARY AT END OF TIME STEP   34 IN STRESS PERIOD    2
                    SECONDS     MINUTES      HOURS       DAYS        YEARS
                    -----------------------------------------------------------
   TIME STEP LENGTH  86400.      1440.0      24.000      1.0000     2.73785E-03
 STRESS PERIOD TIME 2.93760E+06  48960.      816.00      34.000     9.30869E-02
         TOTAL TIME 3.02400E+06  50400.      840.00      35.000     9.58248E-02
1

 SOLVING FOR HEAD 

    ------------------------------------------------
       NWT REQUIRED            3 OUTER ITERATIONS 
       AND A TOTAL OF          3 INNER ITERATIONS.
    ------------------------------------------------

 OUTPUT CONTROL FOR STRESS PERIOD    2   TIME STEP   35
    SAVE HEAD FOR ALL LAYERS
    SAVE DRAWDOWN FOR ALL LAYERS
    SAVE BUDGET
    PRINT HEAD FOR ALL LAYERS
    PRINT BUDGET
1
              HEAD IN LAYER   1 AT END OF TIME STEP  35 IN STRESS PERIOD    2
  ---------------------------------------------------------------------------

            1           2           3           4           5           6           7           8           9          10
           11          12          13          14          15          16          17          18          19          20
 ........................................................................................................................
   1    0.000       0.000       0.000       0.000       0.000       10.51       10.36       10.80       11.48       11.42    
        10.17       7.301       2.207     -0.1968       5.834       21.56       31.91       37.44       0.000       0.000    
   2    0.000       0.000       0.000       0.000       8.314       7.895       7.102       7.790       9.284       9.564    
        8.696       6.520       2.562     -0.2280       8.408       23.31       33.60       39.50       0.000       0.000    
   3    0.000       0.000       0.000       6.283       5.962       4.052       3.222       3.802       5.222       5.772    
        5.421       4.375       2.775     -0.3582       14.16       26.08       37.04       43.76       0.000       0.000    
   4    0.000       0.000       3.573       3.891       2.724     -0.3372     -0.1121     -0.1605     -0.3333     -0.2884    
      -0.2915     -0.2705       1.365     -0.3649       19.09       32.35       42.09       50.72       0.000       0.000    
   5    0.000       0.000      0.6610      3.7808E-02 -0.5180     -2.4316E-02   4.975       8.293       11.44       12.11    
        9.967      9.2444E-02 -0.3127       1.266       26.12       39.65       53.36       64.42       75.35       0.000    
   6    0.000     -0.4433     -0.4976     -0.2686       2.456       10.77       16.05       19.71       22.32       23.87    
        23.61       21.56       22.97       28.16       40.96       53.41       67.76       72.85       77.80       0.000    
   7    0.000       9.779       11.36       13.21       16.34       21.34       25.75       29.14       31.17       34.16    
        35.78       37.03       40.02       45.57       54.85       65.10       74.14       80.19       0.000       0.000    
   8    0.000       15.99       20.30       22.93       25.95       29.75       33.52       36.87       39.73       42.64    
        45.25       48.02       51.92       57.52       64.99       73.16       80.66       88.75       0.000       0.000    
   9    0.000       0.000       28.05       29.72       32.29       35.50       38.90       42.21       45.34       48.46    
        51.60       55.09       59.44       64.96       71.65       78.98       86.43       94.40       102.2       107.1    
  10    0.000       0.000       31.80       33.15       35.46       38.40       41.63       44.90       48.13       51.38    
        54.76       58.54       63.07       68.54       74.94       81.93       89.16       96.39       102.8       106.5    

 HEAD WILL BE SAVED ON UNIT   51 AT END OF TIME STEP   35, STRESS PERIOD    2

 DRAWDOWN WILL BE SAVED ON UNIT   52 AT END OF TIME STEP   35, STRESS PERIOD    2
1
  VOLUMETRIC BUDGET FOR ENTIRE MODEL AT END OF TIME STEP   35, STRESS PERIOD   2
  ------------------------------------------------------------------------------

     CUMULATIVE VOLUMES      L**3       RATES FOR THIS TIME STEP      L**3/T
     ------------------                 ------------------------

           IN:                                      IN:
           ---                                      ---
             STORAGE =      153636.7812               STORAGE =        3529.2649
       CONSTANT HEAD =           0.0000         CONSTANT HEAD =           0.0000
               WELLS =           0.0000                 WELLS =           0.0000
       RIVER LEAKAGE =           0.0000         RIVER LEAKAGE =           0.0000
            RECHARGE =     1189262.1250              RECHARGE =       33296.1602

            TOTAL IN =     1342898.8750              TOTAL IN =       36825.4258

          OUT:                                     OUT:
          ----                                     ----
             STORAGE =      282466.4062               STORAGE =        7971.6411
       CONSTANT HEAD =           0.0000         CONSTANT HEAD =           0.0000
               WELLS =       18340.1484                 WELLS =         509.4487
       RIVER LEAKAGE =     1042123.9375         RIVER LEAKAGE =       28345.4355
            RECHARGE =           0.0000              RECHARGE =           0.0000

           TOTAL OUT =     1342930.5000             TOTAL OUT =       36826.5234

            IN - OUT =         -31.6250              IN - OUT =          -1.0977

 PERCENT DISCREPANCY =          -0.00     PERCENT DISCREPANCY =          -0.00






         TIME SUMMARY AT END OF TIME STEP   35 IN STRESS PERIOD    2
                    SECONDS     MINUTES      HOURS       DAYS        YEARS
                    -----------------------------------------------------------
   TIME STEP LENGTH  86400.      1440.0      24.000      1.0000     2.73785E-03
 STRESS PERIOD TIME 3.02400E+06  50400.      840.00      35.000     9.58248E-02
         TOTAL TIME 3.11040E+06  51840.      864.00      36.000     9.85626E-02
1

 SOLVING FOR HEAD 

    ------------------------------------------------
       NWT REQUIRED            3 OUTER ITERATIONS 
       AND A TOTAL OF          3 INNER ITERATIONS.
    ------------------------------------------------

 OUTPUT CONTROL FOR STRESS PERIOD    2   TIME STEP   36
    SAVE HEAD FOR ALL LAYERS
    SAVE DRAWDOWN FOR ALL LAYERS
    SAVE BUDGET
    PRINT HEAD FOR ALL LAYERS
    PRINT BUDGET
1
              HEAD IN LAYER   1 AT END OF TIME STEP  36 IN STRESS PERIOD    2
  ---------------------------------------------------------------------------

            1           2           3           4           5           6           7           8           9          10
           11          12          13          14          15          16          17          18          19          20
 ........................................................................................................................
   1    0.000       0.000       0.000       0.000       0.000       10.51       10.36       10.80       11.48       11.42    
        10.17       7.303       2.208     -0.1971       5.835       21.56       31.91       37.45       0.000       0.000    
   2    0.000       0.000       0.000       0.000       8.315       7.897       7.103       7.792       9.285       9.566    
        8.697       6.521       2.563     -0.2285       8.409       23.31       33.60       39.50       0.000       0.000    
   3    0.000       0.000       0.000       6.284       5.963       4.054       3.223       3.803       5.224       5.773    
        5.422       4.377       2.776     -0.3589       14.16       26.08       37.04       43.76       0.000       0.000    
   4    0.000       0.000       3.575       3.892       2.726     -0.3378     -0.1125     -0.1611     -0.3341     -0.2891    
      -0.2921     -0.2708       1.366     -0.3658       19.09       32.35       42.10       50.72       0.000       0.000    
   5    0.000       0.000      0.6617      3.7755E-02 -0.5189     -2.4675E-02   4.977       8.295       11.44       12.12    
        9.968      9.1800E-02 -0.3137       1.265       26.12       39.65       53.36       64.43       75.35       0.000    
   6    0.000     -0.4441     -0.4987     -0.2693       2.456       10.77       16.06       19.71       22.32       23.87    
        23.61       21.56       22.98       28.16       40.96       53.41       67.76       72.85       77.80       0.000    
   7    0.000       9.781       11.36       13.21       16.34       21.35       25.75       29.14       31.17       34.16    
        35.78       37.03       40.02       45.57       54.85       65.10       74.14       80.19       0.000       0.000    
   8    0.000       15.99       20.30       22.93       25.96       29.75       33.52       36.87       39.73       42.65    
        45.25       48.02       51.93       57.52       64.99       73.16       80.66       88.75       0.000       0.000    
   9    0.000       0.000       28.05       29.73       32.29       35.50       38.90       42.21       45.34       48.46    
        51.60       55.10       59.44       64.96       71.65       78.99       86.43       94.40       102.2       107.1    
  10    0.000       0.000       31.81       33.16       35.47       38.41       41.63       44.91       48.13       51.38    
        54.76       58.54       63.07       68.54       74.94       81.93       89.16       96.39       102.8       106.5    

 HEAD WILL BE SAVED ON UNIT   51 AT END OF TIME STEP   36, STRESS PERIOD    2

 DRAWDOWN WILL BE SAVED ON UNIT   52 AT END OF TIME STEP   36, STRESS PERIOD    2
1
  VOLUMETRIC BUDGET FOR ENTIRE MODEL AT END OF TIME STEP   36, STRESS PERIOD   2
  ------------------------------------------------------------------------------

     CUMULATIVE VOLUMES      L**3       RATES FOR THIS TIME STEP      L**3/T
     ------------------                 ------------------------

           IN:                                      IN:
           ---                                      ---
             STORAGE =      157124.0781               STORAGE =        3487.3032
       CONSTANT HEAD =           0.0000         CONSTANT HEAD =           0.0000
               WELLS =           0.0000                 WELLS =           0.0000
       RIVER LEAKAGE =           0.0000         RIVER LEAKAGE =           0.0000
            RECHARGE =     1222558.2500              RECHARGE =       33296.1602

            TOTAL IN =     1379682.3750              TOTAL IN =       36783.4648

          OUT:                                     OUT:
          ----                                     ----
             STORAGE =      290432.7812               STORAGE =        7966.3647
       CONSTANT HEAD =           0.0000         CONSTANT HEAD =           0.0000
               WELLS =       18849.5977                 WELLS =         509.4487
       RIVER LEAKAGE =     1070432.7500         RIVER LEAKAGE =       28308.7598
            RECHARGE =           0.0000              RECHARGE =           0.0000

           TOTAL OUT =     1379715.1250             TOTAL OUT =       36784.5742

            IN - OUT =         -32.7500              IN - OUT =          -1.1094

 PERCENT DISCREPANCY =          -0.00     PERCENT DISCREPANCY =          -0.00






         TIME SUMMARY AT END OF TIME STEP   36 IN STRESS PERIOD    2
                    SECONDS     MINUTES      HOURS       DAYS        YEARS
                    -----------------------------------------------------------
   TIME STEP LENGTH  86400.      1440.0      24.000      1.0000     2.73785E-03
 STRESS PERIOD TIME 3.11040E+06  51840.      864.00      36.000     9.85626E-02
         TOTAL TIME 3.19680E+06  53280.      888.00      37.000     0.10130    
1

 SOLVING FOR HEAD 

    ------------------------------------------------
       NWT REQUIRED            3 OUTER ITERATIONS 
       AND A TOTAL OF          3 INNER ITERATIONS.
    ------------------------------------------------

 OUTPUT CONTROL FOR STRESS PERIOD    2   TIME STEP   37
    SAVE HEAD FOR ALL LAYERS
    SAVE DRAWDOWN FOR ALL LAYERS
    SAVE BUDGET
    PRINT HEAD FOR ALL LAYERS
    PRINT BUDGET
1
              HEAD IN LAYER   1 AT END OF TIME STEP  37 IN STRESS PERIOD    2
  ---------------------------------------------------------------------------

            1           2           3           4           5           6           7           8           9          10
           11          12          13          14          15          16          17          18          19          20
 ........................................................................................................................
   1    0.000       0.000       0.000       0.000       0.000       10.51       10.37       10.80       11.49       11.42    
        10.17       7.304       2.210     -0.1975       5.836       21.56       31.91       37.45       0.000       0.000    
   2    0.000       0.000       0.000       0.000       8.317       7.898       7.105       7.793       9.287       9.567    
        8.699       6.523       2.564     -0.2290       8.410       23.31       33.60       39.51       0.000       0.000    
   3    0.000       0.000       0.000       6.286       5.965       4.055       3.224       3.804       5.225       5.775    
        5.424       4.378       2.777     -0.3597       14.16       26.08       37.05       43.77       0.000       0.000    
   4    0.000       0.000       3.576       3.894       2.727     -0.3384     -0.1129     -0.1616     -0.3348     -0.2899    
      -0.2928     -0.2711       1.368     -0.3667       19.09       32.36       42.10       50.73       0.000       0.000    
   5    0.000       0.000      0.6624      3.7704E-02 -0.5197     -2.5032E-02   4.978       8.296       11.44       12.12    
        9.969      9.1193E-02 -0.3146       1.265       26.12       39.65       53.36       64.43       75.35       0.000    
   6    0.000     -0.4449     -0.4997     -0.2699       2.456       10.77       16.06       19.71       22.32       23.87    
        23.62       21.56       22.98       28.17       40.96       53.41       67.77       72.85       77.80       0.000    
   7    0.000       9.782       11.37       13.22       16.34       21.35       25.75       29.14       31.17       34.17    
        35.78       37.03       40.03       45.57       54.85       65.10       74.15       80.20       0.000       0.000    
   8    0.000       15.99       20.30       22.94       25.96       29.75       33.52       36.88       39.73       42.65    
        45.25       48.03       51.93       57.52       64.99       73.16       80.66       88.75       0.000       0.000    
   9    0.000       0.000       28.05       29.73       32.30       35.50       38.90       42.21       45.34       48.46    
        51.60       55.10       59.44       64.96       71.65       78.99       86.43       94.40       102.2       107.1    
  10    0.000       0.000       31.81       33.16       35.47       38.41       41.64       44.91       48.13       51.38    
        54.76       58.55       63.07       68.55       74.94       81.93       89.16       96.40       102.8       106.5    

 HEAD WILL BE SAVED ON UNIT   51 AT END OF TIME STEP   37, STRESS PERIOD    2

 DRAWDOWN WILL BE SAVED ON UNIT   52 AT END OF TIME STEP   37, STRESS PERIOD    2
1
  VOLUMETRIC BUDGET FOR ENTIRE MODEL AT END OF TIME STEP   37, STRESS PERIOD   2
  ------------------------------------------------------------------------------

     CUMULATIVE VOLUMES      L**3       RATES FOR THIS TIME STEP      L**3/T
     ------------------                 ------------------------

           IN:                                      IN:
           ---                                      ---
             STORAGE =      160570.0000               STORAGE =        3445.9226
       CONSTANT HEAD =           0.0000         CONSTANT HEAD =           0.0000
               WELLS =           0.0000                 WELLS =           0.0000
       RIVER LEAKAGE =           0.0000         RIVER LEAKAGE =           0.0000
            RECHARGE =     1255854.3750              RECHARGE =       33296.1602

            TOTAL IN =     1416424.3750              TOTAL IN =       36742.0820

          OUT:                                     OUT:
          ----                                     ----
             STORAGE =      298393.9062               STORAGE =        7961.1260
       CONSTANT HEAD =           0.0000         CONSTANT HEAD =           0.0000
               WELLS =       19359.0469                 WELLS =         509.4487
       RIVER LEAKAGE =     1098705.3750         RIVER LEAKAGE =       28272.6270
            RECHARGE =           0.0000              RECHARGE =           0.0000

           TOTAL OUT =     1416458.2500             TOTAL OUT =       36743.2031

            IN - OUT =         -33.8750              IN - OUT =          -1.1211

 PERCENT DISCREPANCY =          -0.00     PERCENT DISCREPANCY =          -0.00






         TIME SUMMARY AT END OF TIME STEP   37 IN STRESS PERIOD    2
                    SECONDS     MINUTES      HOURS       DAYS        YEARS
                    -----------------------------------------------------------
   TIME STEP LENGTH  86400.      1440.0      24.000      1.0000     2.73785E-03
 STRESS PERIOD TIME 3.19680E+06  53280.      888.00      37.000     0.10130    
         TOTAL TIME 3.28320E+06  54720.      912.00      38.000     0.10404    
1

 SOLVING FOR HEAD 

    ------------------------------------------------
       NWT REQUIRED            3 OUTER ITERATIONS 
       AND A TOTAL OF          3 INNER ITERATIONS.
    ------------------------------------------------

 OUTPUT CONTROL FOR STRESS PERIOD    2   TIME STEP   38
    SAVE HEAD FOR ALL LAYERS
    SAVE DRAWDOWN FOR ALL LAYERS
    SAVE BUDGET
    PRINT HEAD FOR ALL LAYERS
    PRINT BUDGET
1
              HEAD IN LAYER   1 AT END OF TIME STEP  38 IN STRESS PERIOD    2
  ---------------------------------------------------------------------------

            1           2           3           4           5           6           7           8           9          10
           11          12          13          14          15          16          17          18          19          20
 ........................................................................................................................
   1    0.000       0.000       0.000       0.000       0.000       10.51       10.37       10.80       11.49       11.42    
        10.18       7.306       2.211     -0.1979       5.837       21.56       31.91       37.45       0.000       0.000    
   2    0.000       0.000       0.000       0.000       8.318       7.900       7.107       7.795       9.288       9.569    
        8.700       6.524       2.566     -0.2295       8.412       23.31       33.61       39.51       0.000       0.000    
   3    0.000       0.000       0.000       6.287       5.966       4.056       3.225       3.806       5.226       5.776    
        5.425       4.380       2.779     -0.3604       14.17       26.09       37.05       43.77       0.000       0.000    
   4    0.000       0.000       3.578       3.895       2.728     -0.3389     -0.1133     -0.1622     -0.3356     -0.2906    
      -0.2934     -0.2714       1.369     -0.3675       19.09       32.36       42.10       50.73       0.000       0.000    
   5    0.000       0.000      0.6631      3.7655E-02 -0.5205     -2.5386E-02   4.979       8.297       11.45       12.12    
        9.971      9.0622E-02 -0.3155       1.264       26.12       39.65       53.36       64.43       75.35       0.000    
   6    0.000     -0.4456     -0.5006     -0.2706       2.457       10.77       16.06       19.71       22.32       23.87    
        23.62       21.57       22.98       28.17       40.96       53.41       67.77       72.85       77.81       0.000    
   7    0.000       9.784       11.37       13.22       16.34       21.35       25.75       29.15       31.17       34.17    
        35.78       37.03       40.03       45.58       54.86       65.10       74.15       80.20       0.000       0.000    
   8    0.000       16.00       20.30       22.94       25.96       29.75       33.52       36.88       39.73       42.65    
        45.25       48.03       51.93       57.53       64.99       73.17       80.66       88.75       0.000       0.000    
   9    0.000       0.000       28.06       29.73       32.30       35.50       38.90       42.21       45.34       48.46    
        51.60       55.10       59.44       64.97       71.66       78.99       86.43       94.40       102.2       107.1    
  10    0.000       0.000       31.81       33.16       35.47       38.41       41.64       44.91       48.13       51.38    
        54.76       58.55       63.07       68.55       74.94       81.94       89.16       96.40       102.8       106.5    

 HEAD WILL BE SAVED ON UNIT   51 AT END OF TIME STEP   38, STRESS PERIOD    2

 DRAWDOWN WILL BE SAVED ON UNIT   52 AT END OF TIME STEP   38, STRESS PERIOD    2
1
  VOLUMETRIC BUDGET FOR ENTIRE MODEL AT END OF TIME STEP   38, STRESS PERIOD   2
  ------------------------------------------------------------------------------

     CUMULATIVE VOLUMES      L**3       RATES FOR THIS TIME STEP      L**3/T
     ------------------                 ------------------------

           IN:                                      IN:
           ---                                      ---
             STORAGE =      163975.1094               STORAGE =        3405.1113
       CONSTANT HEAD =           0.0000         CONSTANT HEAD =           0.0000
               WELLS =           0.0000                 WELLS =           0.0000
       RIVER LEAKAGE =           0.0000         RIVER LEAKAGE =           0.0000
            RECHARGE =     1289150.5000              RECHARGE =       33296.1602

            TOTAL IN =     1453125.6250              TOTAL IN =       36701.2734

          OUT:                                     OUT:
          ----                                     ----
             STORAGE =      306349.8438               STORAGE =        7955.9238
       CONSTANT HEAD =           0.0000         CONSTANT HEAD =           0.0000
               WELLS =       19868.4961                 WELLS =         509.4487
       RIVER LEAKAGE =     1126942.3750         RIVER LEAKAGE =       28237.0254
            RECHARGE =           0.0000              RECHARGE =           0.0000

           TOTAL OUT =     1453160.7500             TOTAL OUT =       36702.3984

            IN - OUT =         -35.1250              IN - OUT =          -1.1250

 PERCENT DISCREPANCY =          -0.00     PERCENT DISCREPANCY =          -0.00






         TIME SUMMARY AT END OF TIME STEP   38 IN STRESS PERIOD    2
                    SECONDS     MINUTES      HOURS       DAYS        YEARS
                    -----------------------------------------------------------
   TIME STEP LENGTH  86400.      1440.0      24.000      1.0000     2.73785E-03
 STRESS PERIOD TIME 3.28320E+06  54720.      912.00      38.000     0.10404    
         TOTAL TIME 3.36960E+06  56160.      936.00      39.000     0.10678    
1

 SOLVING FOR HEAD 

    ------------------------------------------------
       NWT REQUIRED            3 OUTER ITERATIONS 
       AND A TOTAL OF          3 INNER ITERATIONS.
    ------------------------------------------------

 OUTPUT CONTROL FOR STRESS PERIOD    2   TIME STEP   39
    SAVE HEAD FOR ALL LAYERS
    SAVE DRAWDOWN FOR ALL LAYERS
    SAVE BUDGET
    PRINT HEAD FOR ALL LAYERS
    PRINT BUDGET
1
              HEAD IN LAYER   1 AT END OF TIME STEP  39 IN STRESS PERIOD    2
  ---------------------------------------------------------------------------

            1           2           3           4           5           6           7           8           9          10
           11          12          13          14          15          16          17          18          19          20
 ........................................................................................................................
   1    0.000       0.000       0.000       0.000       0.000       10.51       10.37       10.81       11.49       11.42    
        10.18       7.308       2.212     -0.1983       5.839       21.56       31.91       37.45       0.000       0.000    
   2    0.000       0.000       0.000       0.000       8.320       7.901       7.108       7.796       9.290       9.570    
        8.702       6.526       2.567     -0.2300       8.413       23.32       33.61       39.51       0.000       0.000    
   3    0.000       0.000       0.000       6.289       5.968       4.058       3.226       3.807       5.228       5.778    
        5.426       4.381       2.780     -0.3612       14.17       26.09       37.05       43.77       0.000       0.000    
   4    0.000       0.000       3.579       3.897       2.730     -0.3395     -0.1138     -0.1627     -0.3363     -0.2913    
      -0.2940     -0.2717       1.370     -0.3684       19.10       32.36       42.10       50.73       0.000       0.000    
   5    0.000       0.000      0.6638      3.7607E-02 -0.5213     -2.5738E-02   4.980       8.299       11.45       12.12    
        9.972      9.0083E-02 -0.3165       1.264       26.12       39.65       53.36       64.43       75.35       0.000    
   6    0.000     -0.4464     -0.5016     -0.2713       2.457       10.77       16.06       19.71       22.32       23.87    
        23.62       21.57       22.98       28.17       40.96       53.41       67.77       72.85       77.81       0.000    
   7    0.000       9.785       11.37       13.22       16.34       21.35       25.75       29.15       31.18       34.17    
        35.78       37.03       40.03       45.58       54.86       65.10       74.15       80.20       0.000       0.000    
   8    0.000       16.00       20.31       22.94       25.96       29.76       33.53       36.88       39.73       42.65    
        45.25       48.03       51.93       57.53       65.00       73.17       80.66       88.75       0.000       0.000    
   9    0.000       0.000       28.06       29.73       32.30       35.50       38.90       42.21       45.34       48.46    
        51.61       55.10       59.45       64.97       71.66       78.99       86.44       94.40       102.2       107.1    
  10    0.000       0.000       31.81       33.16       35.47       38.41       41.64       44.91       48.14       51.38    
        54.76       58.55       63.07       68.55       74.94       81.94       89.16       96.40       102.8       106.5    

 HEAD WILL BE SAVED ON UNIT   51 AT END OF TIME STEP   39, STRESS PERIOD    2

 DRAWDOWN WILL BE SAVED ON UNIT   52 AT END OF TIME STEP   39, STRESS PERIOD    2
1
  VOLUMETRIC BUDGET FOR ENTIRE MODEL AT END OF TIME STEP   39, STRESS PERIOD   2
  ------------------------------------------------------------------------------

     CUMULATIVE VOLUMES      L**3       RATES FOR THIS TIME STEP      L**3/T
     ------------------                 ------------------------

           IN:                                      IN:
           ---                                      ---
             STORAGE =      167339.9688               STORAGE =        3364.8584
       CONSTANT HEAD =           0.0000         CONSTANT HEAD =           0.0000
               WELLS =           0.0000                 WELLS =           0.0000
       RIVER LEAKAGE =           0.0000         RIVER LEAKAGE =           0.0000
            RECHARGE =     1322446.6250              RECHARGE =       33296.1602

            TOTAL IN =     1489786.6250              TOTAL IN =       36661.0195

          OUT:                                     OUT:
          ----                                     ----
             STORAGE =      314300.5938               STORAGE =        7950.7583
       CONSTANT HEAD =           0.0000         CONSTANT HEAD =           0.0000
               WELLS =       20377.9453                 WELLS =         509.4487
       RIVER LEAKAGE =     1155144.3750         RIVER LEAKAGE =       28201.9473
            RECHARGE =           0.0000              RECHARGE =           0.0000

           TOTAL OUT =     1489822.8750             TOTAL OUT =       36662.1562

            IN - OUT =         -36.2500              IN - OUT =          -1.1367

 PERCENT DISCREPANCY =          -0.00     PERCENT DISCREPANCY =          -0.00






         TIME SUMMARY AT END OF TIME STEP   39 IN STRESS PERIOD    2
                    SECONDS     MINUTES      HOURS       DAYS        YEARS
                    -----------------------------------------------------------
   TIME STEP LENGTH  86400.      1440.0      24.000      1.0000     2.73785E-03
 STRESS PERIOD TIME 3.36960E+06  56160.      936.00      39.000     0.10678    
         TOTAL TIME 3.45600E+06  57600.      960.00      40.000     0.10951    
1

 SOLVING FOR HEAD 

    ------------------------------------------------
       NWT REQUIRED            3 OUTER ITERATIONS 
       AND A TOTAL OF          3 INNER ITERATIONS.
    ------------------------------------------------

 OUTPUT CONTROL FOR STRESS PERIOD    2   TIME STEP   40
    SAVE HEAD FOR ALL LAYERS
    SAVE DRAWDOWN FOR ALL LAYERS
    SAVE BUDGET
    PRINT HEAD FOR ALL LAYERS
    PRINT BUDGET
1
              HEAD IN LAYER   1 AT END OF TIME STEP  40 IN STRESS PERIOD    2
  ---------------------------------------------------------------------------

            1           2           3           4           5           6           7           8           9          10
           11          12          13          14          15          16          17          18          19          20
 ........................................................................................................................
   1    0.000       0.000       0.000       0.000       0.000       10.52       10.37       10.81       11.49       11.42    
        10.18       7.309       2.213     -0.1987       5.840       21.56       31.91       37.45       0.000       0.000    
   2    0.000       0.000       0.000       0.000       8.321       7.903       7.110       7.798       9.291       9.572    
        8.703       6.527       2.568     -0.2305       8.414       23.32       33.61       39.51       0.000       0.000    
   3    0.000       0.000       0.000       6.291       5.969       4.059       3.228       3.808       5.229       5.779    
        5.428       4.383       2.782     -0.3619       14.17       26.09       37.05       43.77       0.000       0.000    
   4    0.000       0.000       3.581       3.898       2.731     -0.3400     -0.1142     -0.1633     -0.3371     -0.2920    
      -0.2947     -0.2720       1.371     -0.3692       19.10       32.36       42.10       50.73       0.000       0.000    
   5    0.000       0.000      0.6645      3.7562E-02 -0.5221     -2.6088E-02   4.981       8.300       11.45       12.12    
        9.973      8.9575E-02 -0.3173       1.263       26.12       39.65       53.36       64.43       75.36       0.000    
   6    0.000     -0.4472     -0.5025     -0.2719       2.457       10.77       16.06       19.71       22.33       23.87    
        23.62       21.57       22.98       28.17       40.96       53.41       67.77       72.85       77.81       0.000    
   7    0.000       9.786       11.37       13.22       16.34       21.35       25.75       29.15       31.18       34.17    
        35.78       37.04       40.03       45.58       54.86       65.11       74.15       80.20       0.000       0.000    
   8    0.000       16.00       20.31       22.94       25.96       29.76       33.53       36.88       39.73       42.65    
        45.25       48.03       51.93       57.53       65.00       73.17       80.66       88.75       0.000       0.000    
   9    0.000       0.000       28.06       29.73       32.30       35.50       38.91       42.21       45.35       48.47    
        51.61       55.10       59.45       64.97       71.66       78.99       86.44       94.41       102.2       107.1    
  10    0.000       0.000       31.81       33.16       35.47       38.41       41.64       44.91       48.14       51.38    
        54.77       58.55       63.07       68.55       74.95       81.94       89.16       96.40       102.8       106.5    

 HEAD WILL BE SAVED ON UNIT   51 AT END OF TIME STEP   40, STRESS PERIOD    2

 DRAWDOWN WILL BE SAVED ON UNIT   52 AT END OF TIME STEP   40, STRESS PERIOD    2
1
  VOLUMETRIC BUDGET FOR ENTIRE MODEL AT END OF TIME STEP   40, STRESS PERIOD   2
  ------------------------------------------------------------------------------

     CUMULATIVE VOLUMES      L**3       RATES FOR THIS TIME STEP      L**3/T
     ------------------                 ------------------------

           IN:                                      IN:
           ---                                      ---
             STORAGE =      170665.1250               STORAGE =        3325.1533
       CONSTANT HEAD =           0.0000         CONSTANT HEAD =           0.0000
               WELLS =           0.0000                 WELLS =           0.0000
       RIVER LEAKAGE =           0.0000         RIVER LEAKAGE =           0.0000
            RECHARGE =     1355742.7500              RECHARGE =       33296.1602

            TOTAL IN =     1526407.8750              TOTAL IN =       36621.3125

          OUT:                                     OUT:
          ----                                     ----
             STORAGE =      322246.2188               STORAGE =        7945.6274
       CONSTANT HEAD =           0.0000         CONSTANT HEAD =           0.0000
               WELLS =       20887.3945                 WELLS =         509.4487
       RIVER LEAKAGE =     1183311.7500         RIVER LEAKAGE =       28167.3828
            RECHARGE =           0.0000              RECHARGE =           0.0000

           TOTAL OUT =     1526445.3750             TOTAL OUT =       36622.4609

            IN - OUT =         -37.5000              IN - OUT =          -1.1484

 PERCENT DISCREPANCY =          -0.00     PERCENT DISCREPANCY =          -0.00






         TIME SUMMARY AT END OF TIME STEP   40 IN STRESS PERIOD    2
                    SECONDS     MINUTES      HOURS       DAYS        YEARS
                    -----------------------------------------------------------
   TIME STEP LENGTH  86400.      1440.0      24.000      1.0000     2.73785E-03
 STRESS PERIOD TIME 3.45600E+06  57600.      960.00      40.000     0.10951    
         TOTAL TIME 3.54240E+06  59040.      984.00      41.000     0.11225    
1

 SOLVING FOR HEAD 

    ------------------------------------------------
       NWT REQUIRED            3 OUTER ITERATIONS 
       AND A TOTAL OF          3 INNER ITERATIONS.
    ------------------------------------------------

 OUTPUT CONTROL FOR STRESS PERIOD    2   TIME STEP   41
    SAVE HEAD FOR ALL LAYERS
    SAVE DRAWDOWN FOR ALL LAYERS
    SAVE BUDGET
    PRINT HEAD FOR ALL LAYERS
    PRINT BUDGET
1
              HEAD IN LAYER   1 AT END OF TIME STEP  41 IN STRESS PERIOD    2
  ---------------------------------------------------------------------------

            1           2           3           4           5           6           7           8           9          10
           11          12          13          14          15          16          17          18          19          20
 ........................................................................................................................
   1    0.000       0.000       0.000       0.000       0.000       10.52       10.37       10.81       11.49       11.43    
        10.18       7.311       2.214     -0.1990       5.841       21.56       31.91       37.45       0.000       0.000    
   2    0.000       0.000       0.000       0.000       8.323       7.904       7.111       7.800       9.293       9.574    
        8.705       6.529       2.570     -0.2310       8.416       23.32       33.61       39.51       0.000       0.000    
   3    0.000       0.000       0.000       6.292       5.971       4.060       3.229       3.809       5.231       5.780    
        5.429       4.384       2.783     -0.3626       14.17       26.09       37.05       43.77       0.000       0.000    
   4    0.000       0.000       3.582       3.899       2.732     -0.3406     -0.1146     -0.1638     -0.3378     -0.2926    
      -0.2953     -0.2723       1.372     -0.3701       19.10       32.36       42.10       50.73       0.000       0.000    
   5    0.000       0.000      0.6652      3.7518E-02 -0.5228     -2.6435E-02   4.983       8.302       11.45       12.12    
        9.975      8.9097E-02 -0.3182       1.262       26.13       39.66       53.36       64.43       75.36       0.000    
   6    0.000     -0.4479     -0.5035     -0.2726       2.457       10.78       16.06       19.72       22.33       23.88    
        23.62       21.57       22.98       28.17       40.97       53.41       67.77       72.86       77.81       0.000    
   7    0.000       9.788       11.37       13.22       16.34       21.35       25.75       29.15       31.18       34.17    
        35.79       37.04       40.03       45.58       54.86       65.11       74.15       80.20       0.000       0.000    
   8    0.000       16.00       20.31       22.94       25.96       29.76       33.53       36.88       39.74       42.65    
        45.25       48.03       51.93       57.53       65.00       73.17       80.66       88.75       0.000       0.000    
   9    0.000       0.000       28.06       29.73       32.30       35.51       38.91       42.21       45.35       48.47    
        51.61       55.10       59.45       64.97       71.66       78.99       86.44       94.41       102.3       107.1    
  10    0.000       0.000       31.81       33.16       35.47       38.41       41.64       44.91       48.14       51.38    
        54.77       58.55       63.07       68.55       74.95       81.94       89.17       96.40       102.8       106.5    

 HEAD WILL BE SAVED ON UNIT   51 AT END OF TIME STEP   41, STRESS PERIOD    2

 DRAWDOWN WILL BE SAVED ON UNIT   52 AT END OF TIME STEP   41, STRESS PERIOD    2
1
  VOLUMETRIC BUDGET FOR ENTIRE MODEL AT END OF TIME STEP   41, STRESS PERIOD   2
  ------------------------------------------------------------------------------

     CUMULATIVE VOLUMES      L**3       RATES FOR THIS TIME STEP      L**3/T
     ------------------                 ------------------------

           IN:                                      IN:
           ---                                      ---
             STORAGE =      173951.1094               STORAGE =        3285.9856
       CONSTANT HEAD =           0.0000         CONSTANT HEAD =           0.0000
               WELLS =           0.0000                 WELLS =           0.0000
       RIVER LEAKAGE =           0.0000         RIVER LEAKAGE =           0.0000
            RECHARGE =     1389038.8750              RECHARGE =       33296.1602

            TOTAL IN =     1562990.0000              TOTAL IN =       36582.1445

          OUT:                                     OUT:
          ----                                     ----
             STORAGE =      330186.7500               STORAGE =        7940.5322
       CONSTANT HEAD =           0.0000         CONSTANT HEAD =           0.0000
               WELLS =       21396.8438                 WELLS =         509.4487
       RIVER LEAKAGE =     1211445.1250         RIVER LEAKAGE =       28133.3184
            RECHARGE =           0.0000              RECHARGE =           0.0000

           TOTAL OUT =     1563028.7500             TOTAL OUT =       36583.2969

            IN - OUT =         -38.7500              IN - OUT =          -1.1523

 PERCENT DISCREPANCY =          -0.00     PERCENT DISCREPANCY =          -0.00






         TIME SUMMARY AT END OF TIME STEP   41 IN STRESS PERIOD    2
                    SECONDS     MINUTES      HOURS       DAYS        YEARS
                    -----------------------------------------------------------
   TIME STEP LENGTH  86400.      1440.0      24.000      1.0000     2.73785E-03
 STRESS PERIOD TIME 3.54240E+06  59040.      984.00      41.000     0.11225    
         TOTAL TIME 3.62880E+06  60480.      1008.0      42.000     0.11499    
1

 SOLVING FOR HEAD 

    ------------------------------------------------
       NWT REQUIRED            3 OUTER ITERATIONS 
       AND A TOTAL OF          3 INNER ITERATIONS.
    ------------------------------------------------

 OUTPUT CONTROL FOR STRESS PERIOD    2   TIME STEP   42
    SAVE HEAD FOR ALL LAYERS
    SAVE DRAWDOWN FOR ALL LAYERS
    SAVE BUDGET
    PRINT HEAD FOR ALL LAYERS
    PRINT BUDGET
1
              HEAD IN LAYER   1 AT END OF TIME STEP  42 IN STRESS PERIOD    2
  ---------------------------------------------------------------------------

            1           2           3           4           5           6           7           8           9          10
           11          12          13          14          15          16          17          18          19          20
 ........................................................................................................................
   1    0.000       0.000       0.000       0.000       0.000       10.52       10.37       10.81       11.49       11.43    
        10.18       7.312       2.216     -0.1994       5.842       21.57       31.92       37.46       0.000       0.000    
   2    0.000       0.000       0.000       0.000       8.324       7.906       7.113       7.801       9.294       9.575    
        8.707       6.530       2.571     -0.2315       8.417       23.32       33.61       39.51       0.000       0.000    
   3    0.000       0.000       0.000       6.294       5.972       4.062       3.230       3.811       5.232       5.782    
        5.431       4.385       2.784     -0.3633       14.17       26.09       37.05       43.77       0.000       0.000    
   4    0.000       0.000       3.584       3.901       2.733     -0.3411     -0.1150     -0.1644     -0.3385     -0.2933    
      -0.2959     -0.2726       1.374     -0.3709       19.10       32.36       42.10       50.73       0.000       0.000    
   5    0.000       0.000      0.6658      3.7477E-02 -0.5236     -2.6780E-02   4.984       8.303       11.45       12.12    
        9.976      8.8646E-02 -0.3191       1.262       26.13       39.66       53.37       64.43       75.36       0.000    
   6    0.000     -0.4487     -0.5044     -0.2732       2.458       10.78       16.07       19.72       22.33       23.88    
        23.62       21.57       22.98       28.17       40.97       53.42       67.77       72.86       77.81       0.000    
   7    0.000       9.789       11.37       13.22       16.35       21.36       25.76       29.15       31.18       34.17    
        35.79       37.04       40.03       45.58       54.86       65.11       74.15       80.20       0.000       0.000    
   8    0.000       16.00       20.31       22.94       25.97       29.76       33.53       36.88       39.74       42.66    
        45.26       48.03       51.94       57.53       65.00       73.17       80.67       88.76       0.000       0.000    
   9    0.000       0.000       28.06       29.73       32.30       35.51       38.91       42.22       45.35       48.47    
        51.61       55.11       59.45       64.97       71.66       79.00       86.44       94.41       102.3       107.1    
  10    0.000       0.000       31.82       33.17       35.47       38.41       41.64       44.92       48.14       51.39    
        54.77       58.55       63.08       68.55       74.95       81.94       89.17       96.40       102.8       106.5    

 HEAD WILL BE SAVED ON UNIT   51 AT END OF TIME STEP   42, STRESS PERIOD    2

 DRAWDOWN WILL BE SAVED ON UNIT   52 AT END OF TIME STEP   42, STRESS PERIOD    2
1
  VOLUMETRIC BUDGET FOR ENTIRE MODEL AT END OF TIME STEP   42, STRESS PERIOD   2
  ------------------------------------------------------------------------------

     CUMULATIVE VOLUMES      L**3       RATES FOR THIS TIME STEP      L**3/T
     ------------------                 ------------------------

           IN:                                      IN:
           ---                                      ---
             STORAGE =      177198.4531               STORAGE =        3247.3450
       CONSTANT HEAD =           0.0000         CONSTANT HEAD =           0.0000
               WELLS =           0.0000                 WELLS =           0.0000
       RIVER LEAKAGE =           0.0000         RIVER LEAKAGE =           0.0000
            RECHARGE =     1422335.0000              RECHARGE =       33296.1602

            TOTAL IN =     1599533.5000              TOTAL IN =       36543.5039

          OUT:                                     OUT:
          ----                                     ----
             STORAGE =      338122.2188               STORAGE =        7935.4712
       CONSTANT HEAD =           0.0000         CONSTANT HEAD =           0.0000
               WELLS =       21906.2930                 WELLS =         509.4487
       RIVER LEAKAGE =     1239544.8750         RIVER LEAKAGE =       28099.7480
            RECHARGE =           0.0000              RECHARGE =           0.0000

           TOTAL OUT =     1599573.3750             TOTAL OUT =       36544.6680

            IN - OUT =         -39.8750              IN - OUT =          -1.1641

 PERCENT DISCREPANCY =          -0.00     PERCENT DISCREPANCY =          -0.00






         TIME SUMMARY AT END OF TIME STEP   42 IN STRESS PERIOD    2
                    SECONDS     MINUTES      HOURS       DAYS        YEARS
                    -----------------------------------------------------------
   TIME STEP LENGTH  86400.      1440.0      24.000      1.0000     2.73785E-03
 STRESS PERIOD TIME 3.62880E+06  60480.      1008.0      42.000     0.11499    
         TOTAL TIME 3.71520E+06  61920.      1032.0      43.000     0.11773    
1

 SOLVING FOR HEAD 

    ------------------------------------------------
       NWT REQUIRED            3 OUTER ITERATIONS 
       AND A TOTAL OF          3 INNER ITERATIONS.
    ------------------------------------------------

 OUTPUT CONTROL FOR STRESS PERIOD    2   TIME STEP   43
    SAVE HEAD FOR ALL LAYERS
    SAVE DRAWDOWN FOR ALL LAYERS
    SAVE BUDGET
    PRINT HEAD FOR ALL LAYERS
    PRINT BUDGET
1
              HEAD IN LAYER   1 AT END OF TIME STEP  43 IN STRESS PERIOD    2
  ---------------------------------------------------------------------------

            1           2           3           4           5           6           7           8           9          10
           11          12          13          14          15          16          17          18          19          20
 ........................................................................................................................
   1    0.000       0.000       0.000       0.000       0.000       10.52       10.37       10.81       11.49       11.43    
        10.18       7.314       2.217     -0.1998       5.844       21.57       31.92       37.46       0.000       0.000    
   2    0.000       0.000       0.000       0.000       8.326       7.908       7.114       7.803       9.296       9.577    
        8.708       6.532       2.572     -0.2320       8.418       23.32       33.61       39.51       0.000       0.000    
   3    0.000       0.000       0.000       6.295       5.974       4.063       3.231       3.812       5.233       5.783    
        5.432       4.387       2.786     -0.3640       14.17       26.09       37.06       43.77       0.000       0.000    
   4    0.000       0.000       3.585       3.902       2.735     -0.3417     -0.1154     -0.1649     -0.3392     -0.2940    
      -0.2965     -0.2729       1.375     -0.3717       19.10       32.37       42.11       50.74       0.000       0.000    
   5    0.000       0.000      0.6665      3.7437E-02 -0.5243     -2.7123E-02   4.985       8.304       11.45       12.13    
        9.977      8.8222E-02 -0.3199       1.261       26.13       39.66       53.37       64.44       75.36       0.000    
   6    0.000     -0.4494     -0.5053     -0.2738       2.458       10.78       16.07       19.72       22.33       23.88    
        23.63       21.57       22.99       28.17       40.97       53.42       67.77       72.86       77.81       0.000    
   7    0.000       9.791       11.37       13.22       16.35       21.36       25.76       29.15       31.18       34.17    
        35.79       37.04       40.03       45.58       54.86       65.11       74.15       80.21       0.000       0.000    
   8    0.000       16.00       20.31       22.95       25.97       29.76       33.53       36.89       39.74       42.66    
        45.26       48.03       51.94       57.53       65.00       73.17       80.67       88.76       0.000       0.000    
   9    0.000       0.000       28.06       29.74       32.30       35.51       38.91       42.22       45.35       48.47    
        51.61       55.11       59.45       64.97       71.66       79.00       86.44       94.41       102.3       107.1    
  10    0.000       0.000       31.82       33.17       35.48       38.42       41.65       44.92       48.14       51.39    
        54.77       58.55       63.08       68.56       74.95       81.94       89.17       96.40       102.8       106.5    

 HEAD WILL BE SAVED ON UNIT   51 AT END OF TIME STEP   43, STRESS PERIOD    2

 DRAWDOWN WILL BE SAVED ON UNIT   52 AT END OF TIME STEP   43, STRESS PERIOD    2
1
  VOLUMETRIC BUDGET FOR ENTIRE MODEL AT END OF TIME STEP   43, STRESS PERIOD   2
  ------------------------------------------------------------------------------

     CUMULATIVE VOLUMES      L**3       RATES FOR THIS TIME STEP      L**3/T
     ------------------                 ------------------------

           IN:                                      IN:
           ---                                      ---
             STORAGE =      180407.6719               STORAGE =        3209.2217
       CONSTANT HEAD =           0.0000         CONSTANT HEAD =           0.0000
               WELLS =           0.0000                 WELLS =           0.0000
       RIVER LEAKAGE =           0.0000         RIVER LEAKAGE =           0.0000
            RECHARGE =     1455631.1250              RECHARGE =       33296.1602

            TOTAL IN =     1636038.7500              TOTAL IN =       36505.3828

          OUT:                                     OUT:
          ----                                     ----
             STORAGE =      346052.6562               STORAGE =        7930.4438
       CONSTANT HEAD =           0.0000         CONSTANT HEAD =           0.0000
               WELLS =       22415.7422                 WELLS =         509.4487
       RIVER LEAKAGE =     1267611.5000         RIVER LEAKAGE =       28066.6602
            RECHARGE =           0.0000              RECHARGE =           0.0000

           TOTAL OUT =     1636079.8750             TOTAL OUT =       36506.5547

            IN - OUT =         -41.1250              IN - OUT =          -1.1719

 PERCENT DISCREPANCY =          -0.00     PERCENT DISCREPANCY =          -0.00






         TIME SUMMARY AT END OF TIME STEP   43 IN STRESS PERIOD    2
                    SECONDS     MINUTES      HOURS       DAYS        YEARS
                    -----------------------------------------------------------
   TIME STEP LENGTH  86400.      1440.0      24.000      1.0000     2.73785E-03
 STRESS PERIOD TIME 3.71520E+06  61920.      1032.0      43.000     0.11773    
         TOTAL TIME 3.80160E+06  63360.      1056.0      44.000     0.12047    
1

 SOLVING FOR HEAD 

    ------------------------------------------------
       NWT REQUIRED            3 OUTER ITERATIONS 
       AND A TOTAL OF          3 INNER ITERATIONS.
    ------------------------------------------------

 OUTPUT CONTROL FOR STRESS PERIOD    2   TIME STEP   44
    SAVE HEAD FOR ALL LAYERS
    SAVE DRAWDOWN FOR ALL LAYERS
    SAVE BUDGET
    PRINT HEAD FOR ALL LAYERS
    PRINT BUDGET
1
              HEAD IN LAYER   1 AT END OF TIME STEP  44 IN STRESS PERIOD    2
  ---------------------------------------------------------------------------

            1           2           3           4           5           6           7           8           9          10
           11          12          13          14          15          16          17          18          19          20
 ........................................................................................................................
   1    0.000       0.000       0.000       0.000       0.000       10.52       10.38       10.81       11.50       11.43    
        10.18       7.315       2.218     -0.2001       5.845       21.57       31.92       37.46       0.000       0.000    
   2    0.000       0.000       0.000       0.000       8.327       7.909       7.116       7.804       9.297       9.578    
        8.710       6.533       2.573     -0.2325       8.420       23.32       33.61       39.52       0.000       0.000    
   3    0.000       0.000       0.000       6.297       5.976       4.064       3.232       3.813       5.235       5.785    
        5.433       4.388       2.787     -0.3647       14.17       26.09       37.06       43.78       0.000       0.000    
   4    0.000       0.000       3.587       3.904       2.736     -0.3422     -0.1158     -0.1654     -0.3399     -0.2947    
      -0.2971     -0.2731       1.376     -0.3725       19.10       32.37       42.11       50.74       0.000       0.000    
   5    0.000       0.000      0.6672      3.7399E-02 -0.5251     -2.7463E-02   4.986       8.306       11.45       12.13    
        9.978      8.7823E-02 -0.3208       1.261       26.13       39.66       53.37       64.44       75.36       0.000    
   6    0.000     -0.4502     -0.5061     -0.2744       2.458       10.78       16.07       19.72       22.33       23.88    
        23.63       21.57       22.99       28.17       40.97       53.42       67.78       72.86       77.82       0.000    
   7    0.000       9.792       11.37       13.23       16.35       21.36       25.76       29.15       31.18       34.18    
        35.79       37.04       40.04       45.58       54.86       65.11       74.16       80.21       0.000       0.000    
   8    0.000       16.01       20.31       22.95       25.97       29.76       33.53       36.89       39.74       42.66    
        45.26       48.04       51.94       57.53       65.00       73.17       80.67       88.76       0.000       0.000    
   9    0.000       0.000       28.06       29.74       32.31       35.51       38.91       42.22       45.35       48.47    
        51.61       55.11       59.45       64.97       71.67       79.00       86.44       94.41       102.3       107.1    
  10    0.000       0.000       31.82       33.17       35.48       38.42       41.65       44.92       48.14       51.39    
        54.77       58.56       63.08       68.56       74.95       81.95       89.17       96.41       102.8       106.5    

 HEAD WILL BE SAVED ON UNIT   51 AT END OF TIME STEP   44, STRESS PERIOD    2

 DRAWDOWN WILL BE SAVED ON UNIT   52 AT END OF TIME STEP   44, STRESS PERIOD    2
1
  VOLUMETRIC BUDGET FOR ENTIRE MODEL AT END OF TIME STEP   44, STRESS PERIOD   2
  ------------------------------------------------------------------------------

     CUMULATIVE VOLUMES      L**3       RATES FOR THIS TIME STEP      L**3/T
     ------------------                 ------------------------

           IN:                                      IN:
           ---                                      ---
             STORAGE =      183579.2812               STORAGE =        3171.6064
       CONSTANT HEAD =           0.0000         CONSTANT HEAD =           0.0000
               WELLS =           0.0000                 WELLS =           0.0000
       RIVER LEAKAGE =           0.0000         RIVER LEAKAGE =           0.0000
            RECHARGE =     1488927.2500              RECHARGE =       33296.1602

            TOTAL IN =     1672506.5000              TOTAL IN =       36467.7656

          OUT:                                     OUT:
          ----                                     ----
             STORAGE =      353978.0938               STORAGE =        7925.4502
       CONSTANT HEAD =           0.0000         CONSTANT HEAD =           0.0000
               WELLS =       22925.1914                 WELLS =         509.4487
       RIVER LEAKAGE =     1295645.5000         RIVER LEAKAGE =       28034.0469
            RECHARGE =           0.0000              RECHARGE =           0.0000

           TOTAL OUT =     1672548.7500             TOTAL OUT =       36468.9453

            IN - OUT =         -42.2500              IN - OUT =          -1.1797

 PERCENT DISCREPANCY =          -0.00     PERCENT DISCREPANCY =          -0.00






         TIME SUMMARY AT END OF TIME STEP   44 IN STRESS PERIOD    2
                    SECONDS     MINUTES      HOURS       DAYS        YEARS
                    -----------------------------------------------------------
   TIME STEP LENGTH  86400.      1440.0      24.000      1.0000     2.73785E-03
 STRESS PERIOD TIME 3.80160E+06  63360.      1056.0      44.000     0.12047    
         TOTAL TIME 3.88800E+06  64800.      1080.0      45.000     0.12320    
1

 SOLVING FOR HEAD 

    ------------------------------------------------
       NWT REQUIRED            3 OUTER ITERATIONS 
       AND A TOTAL OF          3 INNER ITERATIONS.
    ------------------------------------------------

 OUTPUT CONTROL FOR STRESS PERIOD    2   TIME STEP   45
    SAVE HEAD FOR ALL LAYERS
    SAVE DRAWDOWN FOR ALL LAYERS
    SAVE BUDGET
    PRINT HEAD FOR ALL LAYERS
    PRINT BUDGET
1
              HEAD IN LAYER   1 AT END OF TIME STEP  45 IN STRESS PERIOD    2
  ---------------------------------------------------------------------------

            1           2           3           4           5           6           7           8           9          10
           11          12          13          14          15          16          17          18          19          20
 ........................................................................................................................
   1    0.000       0.000       0.000       0.000       0.000       10.52       10.38       10.81       11.50       11.43    
        10.19       7.317       2.219     -0.2005       5.846       21.57       31.92       37.46       0.000       0.000    
   2    0.000       0.000       0.000       0.000       8.329       7.911       7.117       7.806       9.299       9.580    
        8.711       6.535       2.575     -0.2330       8.421       23.33       33.62       39.52       0.000       0.000    
   3    0.000       0.000       0.000       6.298       5.977       4.066       3.233       3.814       5.236       5.786    
        5.435       4.390       2.789     -0.3654       14.18       26.10       37.06       43.78       0.000       0.000    
   4    0.000       0.000       3.588       3.905       2.737     -0.3427     -0.1161     -0.1659     -0.3406     -0.2953    
      -0.2977     -0.2734       1.377     -0.3733       19.10       32.37       42.11       50.74       0.000       0.000    
   5    0.000       0.000      0.6678      3.7363E-02 -0.5258     -2.7801E-02   4.987       8.307       11.45       12.13    
        9.980      8.7448E-02 -0.3216       1.261       26.13       39.66       53.37       64.44       75.36       0.000    
   6    0.000     -0.4509     -0.5070     -0.2751       2.459       10.78       16.07       19.72       22.33       23.88    
        23.63       21.58       22.99       28.18       40.97       53.42       67.78       72.86       77.82       0.000    
   7    0.000       9.793       11.38       13.23       16.35       21.36       25.76       29.16       31.19       34.18    
        35.79       37.04       40.04       45.59       54.87       65.11       74.16       80.21       0.000       0.000    
   8    0.000       16.01       20.31       22.95       25.97       29.77       33.54       36.89       39.74       42.66    
        45.26       48.04       51.94       57.54       65.00       73.18       80.67       88.76       0.000       0.000    
   9    0.000       0.000       28.07       29.74       32.31       35.51       38.91       42.22       45.35       48.47    
        51.62       55.11       59.45       64.98       71.67       79.00       86.44       94.41       102.3       107.1    
  10    0.000       0.000       31.82       33.17       35.48       38.42       41.65       44.92       48.15       51.39    
        54.77       58.56       63.08       68.56       74.95       81.95       89.17       96.41       102.8       106.5    

 HEAD WILL BE SAVED ON UNIT   51 AT END OF TIME STEP   45, STRESS PERIOD    2

 DRAWDOWN WILL BE SAVED ON UNIT   52 AT END OF TIME STEP   45, STRESS PERIOD    2
1
  VOLUMETRIC BUDGET FOR ENTIRE MODEL AT END OF TIME STEP   45, STRESS PERIOD   2
  ------------------------------------------------------------------------------

     CUMULATIVE VOLUMES      L**3       RATES FOR THIS TIME STEP      L**3/T
     ------------------                 ------------------------

           IN:                                      IN:
           ---                                      ---
             STORAGE =      186713.7656               STORAGE =        3134.4897
       CONSTANT HEAD =           0.0000         CONSTANT HEAD =           0.0000
               WELLS =           0.0000                 WELLS =           0.0000
       RIVER LEAKAGE =           0.0000         RIVER LEAKAGE =           0.0000
            RECHARGE =     1522223.3750              RECHARGE =       33296.1602

            TOTAL IN =     1708937.1250              TOTAL IN =       36430.6484

          OUT:                                     OUT:
          ----                                     ----
             STORAGE =      361898.5938               STORAGE =        7920.4897
       CONSTANT HEAD =           0.0000         CONSTANT HEAD =           0.0000
               WELLS =       23434.6406                 WELLS =         509.4487
       RIVER LEAKAGE =     1323647.3750         RIVER LEAKAGE =       28001.8984
            RECHARGE =           0.0000              RECHARGE =           0.0000

           TOTAL OUT =     1708980.6250             TOTAL OUT =       36431.8359

            IN - OUT =         -43.5000              IN - OUT =          -1.1875

 PERCENT DISCREPANCY =          -0.00     PERCENT DISCREPANCY =          -0.00






         TIME SUMMARY AT END OF TIME STEP   45 IN STRESS PERIOD    2
                    SECONDS     MINUTES      HOURS       DAYS        YEARS
                    -----------------------------------------------------------
   TIME STEP LENGTH  86400.      1440.0      24.000      1.0000     2.73785E-03
 STRESS PERIOD TIME 3.88800E+06  64800.      1080.0      45.000     0.12320    
         TOTAL TIME 3.97440E+06  66240.      1104.0      46.000     0.12594    
1

 SOLVING FOR HEAD 

    ------------------------------------------------
       NWT REQUIRED            3 OUTER ITERATIONS 
       AND A TOTAL OF          3 INNER ITERATIONS.
    ------------------------------------------------

 OUTPUT CONTROL FOR STRESS PERIOD    2   TIME STEP   46
    SAVE HEAD FOR ALL LAYERS
    SAVE DRAWDOWN FOR ALL LAYERS
    SAVE BUDGET
    PRINT HEAD FOR ALL LAYERS
    PRINT BUDGET
1
              HEAD IN LAYER   1 AT END OF TIME STEP  46 IN STRESS PERIOD    2
  ---------------------------------------------------------------------------

            1           2           3           4           5           6           7           8           9          10
           11          12          13          14          15          16          17          18          19          20
 ........................................................................................................................
   1    0.000       0.000       0.000       0.000       0.000       10.53       10.38       10.82       11.50       11.43    
        10.19       7.318       2.220     -0.2008       5.847       21.57       31.92       37.46       0.000       0.000    
   2    0.000       0.000       0.000       0.000       8.331       7.912       7.119       7.807       9.300       9.581    
        8.713       6.536       2.576     -0.2335       8.422       23.33       33.62       39.52       0.000       0.000    
   3    0.000       0.000       0.000       6.300       5.979       4.067       3.234       3.816       5.238       5.787    
        5.436       4.391       2.790     -0.3661       14.18       26.10       37.06       43.78       0.000       0.000    
   4    0.000       0.000       3.590       3.907       2.738     -0.3432     -0.1165     -0.1664     -0.3413     -0.2960    
      -0.2983     -0.2737       1.378     -0.3740       19.11       32.37       42.11       50.74       0.000       0.000    
   5    0.000       0.000      0.6685      3.7329E-02 -0.5265     -2.8136E-02   4.989       8.308       11.46       12.13    
        9.981      8.7095E-02 -0.3224       1.260       26.13       39.66       53.37       64.44       75.36       0.000    
   6    0.000     -0.4516     -0.5078     -0.2757       2.459       10.78       16.07       19.72       22.34       23.88    
        23.63       21.58       22.99       28.18       40.97       53.42       67.78       72.86       77.82       0.000    
   7    0.000       9.795       11.38       13.23       16.35       21.36       25.76       29.16       31.19       34.18    
        35.79       37.05       40.04       45.59       54.87       65.12       74.16       80.21       0.000       0.000    
   8    0.000       16.01       20.32       22.95       25.97       29.77       33.54       36.89       39.74       42.66    
        45.26       48.04       51.94       57.54       65.01       73.18       80.67       88.76       0.000       0.000    
   9    0.000       0.000       28.07       29.74       32.31       35.51       38.91       42.22       45.36       48.47    
        51.62       55.11       59.46       64.98       71.67       79.00       86.45       94.42       102.3       107.1    
  10    0.000       0.000       31.82       33.17       35.48       38.42       41.65       44.92       48.15       51.39    
        54.78       58.56       63.08       68.56       74.96       81.95       89.17       96.41       102.8       106.5    

 HEAD WILL BE SAVED ON UNIT   51 AT END OF TIME STEP   46, STRESS PERIOD    2

 DRAWDOWN WILL BE SAVED ON UNIT   52 AT END OF TIME STEP   46, STRESS PERIOD    2
1
  VOLUMETRIC BUDGET FOR ENTIRE MODEL AT END OF TIME STEP   46, STRESS PERIOD   2
  ------------------------------------------------------------------------------

     CUMULATIVE VOLUMES      L**3       RATES FOR THIS TIME STEP      L**3/T
     ------------------                 ------------------------

           IN:                                      IN:
           ---                                      ---
             STORAGE =      189811.6250               STORAGE =        3097.8630
       CONSTANT HEAD =           0.0000         CONSTANT HEAD =           0.0000
               WELLS =           0.0000                 WELLS =           0.0000
       RIVER LEAKAGE =           0.0000         RIVER LEAKAGE =           0.0000
            RECHARGE =     1555519.5000              RECHARGE =       33296.1602

            TOTAL IN =     1745331.1250              TOTAL IN =       36394.0234

          OUT:                                     OUT:
          ----                                     ----
             STORAGE =      369814.1562               STORAGE =        7915.5610
       CONSTANT HEAD =           0.0000         CONSTANT HEAD =           0.0000
               WELLS =       23944.0898                 WELLS =         509.4487
       RIVER LEAKAGE =     1351617.6250         RIVER LEAKAGE =       27970.2090
            RECHARGE =           0.0000              RECHARGE =           0.0000

           TOTAL OUT =     1745375.8750             TOTAL OUT =       36395.2188

            IN - OUT =         -44.7500              IN - OUT =          -1.1953

 PERCENT DISCREPANCY =          -0.00     PERCENT DISCREPANCY =          -0.00






         TIME SUMMARY AT END OF TIME STEP   46 IN STRESS PERIOD    2
                    SECONDS     MINUTES      HOURS       DAYS        YEARS
                    -----------------------------------------------------------
   TIME STEP LENGTH  86400.      1440.0      24.000      1.0000     2.73785E-03
 STRESS PERIOD TIME 3.97440E+06  66240.      1104.0      46.000     0.12594    
         TOTAL TIME 4.06080E+06  67680.      1128.0      47.000     0.12868    
1

 SOLVING FOR HEAD 

    ------------------------------------------------
       NWT REQUIRED            3 OUTER ITERATIONS 
       AND A TOTAL OF          3 INNER ITERATIONS.
    ------------------------------------------------

 OUTPUT CONTROL FOR STRESS PERIOD    2   TIME STEP   47
    SAVE HEAD FOR ALL LAYERS
    SAVE DRAWDOWN FOR ALL LAYERS
    SAVE BUDGET
    PRINT HEAD FOR ALL LAYERS
    PRINT BUDGET
1
              HEAD IN LAYER   1 AT END OF TIME STEP  47 IN STRESS PERIOD    2
  ---------------------------------------------------------------------------

            1           2           3           4           5           6           7           8           9          10
           11          12          13          14          15          16          17          18          19          20
 ........................................................................................................................
   1    0.000       0.000       0.000       0.000       0.000       10.53       10.38       10.82       11.50       11.44    
        10.19       7.320       2.222     -0.2012       5.848       21.57       31.92       37.46       0.000       0.000    
   2    0.000       0.000       0.000       0.000       8.332       7.914       7.120       7.809       9.302       9.583    
        8.714       6.538       2.577     -0.2339       8.423       23.33       33.62       39.52       0.000       0.000    
   3    0.000       0.000       0.000       6.301       5.980       4.068       3.236       3.817       5.239       5.789    
        5.438       4.393       2.792     -0.3667       14.18       26.10       37.06       43.78       0.000       0.000    
   4    0.000       0.000       3.591       3.908       2.740     -0.3437     -0.1169     -0.1669     -0.3420     -0.2966    
      -0.2989     -0.2740       1.380     -0.3748       19.11       32.37       42.11       50.74       0.000       0.000    
   5    0.000       0.000      0.6691      3.7296E-02 -0.5273     -2.8470E-02   4.990       8.310       11.46       12.13    
        9.982      8.6762E-02 -0.3232       1.260       26.13       39.66       53.37       64.44       75.37       0.000    
   6    0.000     -0.4523     -0.5087     -0.2763       2.459       10.78       16.07       19.72       22.34       23.89    
        23.63       21.58       22.99       28.18       40.97       53.42       67.78       72.87       77.82       0.000    
   7    0.000       9.796       11.38       13.23       16.35       21.36       25.76       29.16       31.19       34.18    
        35.80       37.05       40.04       45.59       54.87       65.12       74.16       80.21       0.000       0.000    
   8    0.000       16.01       20.32       22.95       25.97       29.77       33.54       36.89       39.74       42.66    
        45.26       48.04       51.94       57.54       65.01       73.18       80.67       88.76       0.000       0.000    
   9    0.000       0.000       28.07       29.74       32.31       35.51       38.92       42.22       45.36       48.48    
        51.62       55.11       59.46       64.98       71.67       79.00       86.45       94.42       102.3       107.1    
  10    0.000       0.000       31.82       33.17       35.48       38.42       41.65       44.92       48.15       51.39    
        54.78       58.56       63.08       68.56       74.96       81.95       89.17       96.41       102.8       106.5    

 HEAD WILL BE SAVED ON UNIT   51 AT END OF TIME STEP   47, STRESS PERIOD    2

 DRAWDOWN WILL BE SAVED ON UNIT   52 AT END OF TIME STEP   47, STRESS PERIOD    2
1
  VOLUMETRIC BUDGET FOR ENTIRE MODEL AT END OF TIME STEP   47, STRESS PERIOD   2
  ------------------------------------------------------------------------------

     CUMULATIVE VOLUMES      L**3       RATES FOR THIS TIME STEP      L**3/T
     ------------------                 ------------------------

           IN:                                      IN:
           ---                                      ---
             STORAGE =      192873.3438               STORAGE =        3061.7173
       CONSTANT HEAD =           0.0000         CONSTANT HEAD =           0.0000
               WELLS =           0.0000                 WELLS =           0.0000
       RIVER LEAKAGE =           0.0000         RIVER LEAKAGE =           0.0000
            RECHARGE =     1588815.6250              RECHARGE =       33296.1602

            TOTAL IN =     1781689.0000              TOTAL IN =       36357.8789

          OUT:                                     OUT:
          ----                                     ----
             STORAGE =      377724.8125               STORAGE =        7910.6646
       CONSTANT HEAD =           0.0000         CONSTANT HEAD =           0.0000
               WELLS =       24453.5391                 WELLS =         509.4487
       RIVER LEAKAGE =     1379556.6250         RIVER LEAKAGE =       27938.9668
            RECHARGE =           0.0000              RECHARGE =           0.0000

           TOTAL OUT =     1781735.0000             TOTAL OUT =       36359.0781

            IN - OUT =         -46.0000              IN - OUT =          -1.1992

 PERCENT DISCREPANCY =          -0.00     PERCENT DISCREPANCY =          -0.00






         TIME SUMMARY AT END OF TIME STEP   47 IN STRESS PERIOD    2
                    SECONDS     MINUTES      HOURS       DAYS        YEARS
                    -----------------------------------------------------------
   TIME STEP LENGTH  86400.      1440.0      24.000      1.0000     2.73785E-03
 STRESS PERIOD TIME 4.06080E+06  67680.      1128.0      47.000     0.12868    
         TOTAL TIME 4.14720E+06  69120.      1152.0      48.000     0.13142    
1

 SOLVING FOR HEAD 

    ------------------------------------------------
       NWT REQUIRED            3 OUTER ITERATIONS 
       AND A TOTAL OF          3 INNER ITERATIONS.
    ------------------------------------------------

 OUTPUT CONTROL FOR STRESS PERIOD    2   TIME STEP   48
    SAVE HEAD FOR ALL LAYERS
    SAVE DRAWDOWN FOR ALL LAYERS
    SAVE BUDGET
    PRINT HEAD FOR ALL LAYERS
    PRINT BUDGET
1
              HEAD IN LAYER   1 AT END OF TIME STEP  48 IN STRESS PERIOD    2
  ---------------------------------------------------------------------------

            1           2           3           4           5           6           7           8           9          10
           11          12          13          14          15          16          17          18          19          20
 ........................................................................................................................
   1    0.000       0.000       0.000       0.000       0.000       10.53       10.38       10.82       11.50       11.44    
        10.19       7.321       2.223     -0.2016       5.850       21.58       31.93       37.46       0.000       0.000    
   2    0.000       0.000       0.000       0.000       8.334       7.915       7.122       7.810       9.304       9.584    
        8.716       6.540       2.579     -0.2344       8.425       23.33       33.62       39.52       0.000       0.000    
   3    0.000       0.000       0.000       6.303       5.982       4.069       3.237       3.818       5.240       5.790    
        5.439       4.394       2.793     -0.3674       14.18       26.10       37.06       43.78       0.000       0.000    
   4    0.000       0.000       3.593       3.910       2.741     -0.3442     -0.1173     -0.1674     -0.3426     -0.2972    
      -0.2995     -0.2743       1.381     -0.3756       19.11       32.37       42.11       50.74       0.000       0.000    
   5    0.000       0.000      0.6698      3.7265E-02 -0.5280     -2.8801E-02   4.991       8.311       11.46       12.13    
        9.984      8.6450E-02 -0.3240       1.259       26.14       39.67       53.38       64.44       75.37       0.000    
   6    0.000     -0.4530     -0.5095     -0.2769       2.460       10.78       16.07       19.73       22.34       23.89    
        23.63       21.58       22.99       28.18       40.98       53.43       67.78       72.87       77.82       0.000    
   7    0.000       9.797       11.38       13.23       16.35       21.36       25.77       29.16       31.19       34.18    
        35.80       37.05       40.04       45.59       54.87       65.12       74.16       80.21       0.000       0.000    
   8    0.000       16.01       20.32       22.95       25.97       29.77       33.54       36.89       39.75       42.66    
        45.27       48.04       51.94       57.54       65.01       73.18       80.68       88.77       0.000       0.000    
   9    0.000       0.000       28.07       29.74       32.31       35.52       38.92       42.23       45.36       48.48    
        51.62       55.11       59.46       64.98       71.67       79.00       86.45       94.42       102.3       107.1    
  10    0.000       0.000       31.82       33.18       35.48       38.42       41.65       44.92       48.15       51.40    
        54.78       58.56       63.09       68.56       74.96       81.95       89.18       96.41       102.8       106.5    

 HEAD WILL BE SAVED ON UNIT   51 AT END OF TIME STEP   48, STRESS PERIOD    2

 DRAWDOWN WILL BE SAVED ON UNIT   52 AT END OF TIME STEP   48, STRESS PERIOD    2
1
  VOLUMETRIC BUDGET FOR ENTIRE MODEL AT END OF TIME STEP   48, STRESS PERIOD   2
  ------------------------------------------------------------------------------

     CUMULATIVE VOLUMES      L**3       RATES FOR THIS TIME STEP      L**3/T
     ------------------                 ------------------------

           IN:                                      IN:
           ---                                      ---
             STORAGE =      195899.3906               STORAGE =        3026.0442
       CONSTANT HEAD =           0.0000         CONSTANT HEAD =           0.0000
               WELLS =           0.0000                 WELLS =           0.0000
       RIVER LEAKAGE =           0.0000         RIVER LEAKAGE =           0.0000
            RECHARGE =     1622111.7500              RECHARGE =       33296.1602

            TOTAL IN =     1818011.1250              TOTAL IN =       36322.2031

          OUT:                                     OUT:
          ----                                     ----
             STORAGE =      385630.6250               STORAGE =        7905.7993
       CONSTANT HEAD =           0.0000         CONSTANT HEAD =           0.0000
               WELLS =       24962.9883                 WELLS =         509.4487
       RIVER LEAKAGE =     1407464.7500         RIVER LEAKAGE =       27908.1660
            RECHARGE =           0.0000              RECHARGE =           0.0000

           TOTAL OUT =     1818058.3750             TOTAL OUT =       36323.4141

            IN - OUT =         -47.2500              IN - OUT =          -1.2109

 PERCENT DISCREPANCY =          -0.00     PERCENT DISCREPANCY =          -0.00






         TIME SUMMARY AT END OF TIME STEP   48 IN STRESS PERIOD    2
                    SECONDS     MINUTES      HOURS       DAYS        YEARS
                    -----------------------------------------------------------
   TIME STEP LENGTH  86400.      1440.0      24.000      1.0000     2.73785E-03
 STRESS PERIOD TIME 4.14720E+06  69120.      1152.0      48.000     0.13142    
         TOTAL TIME 4.23360E+06  70560.      1176.0      49.000     0.13415    
1

 SOLVING FOR HEAD 

    ------------------------------------------------
       NWT REQUIRED            3 OUTER ITERATIONS 
       AND A TOTAL OF          3 INNER ITERATIONS.
    ------------------------------------------------

 OUTPUT CONTROL FOR STRESS PERIOD    2   TIME STEP   49
    SAVE HEAD FOR ALL LAYERS
    SAVE DRAWDOWN FOR ALL LAYERS
    SAVE BUDGET
    PRINT HEAD FOR ALL LAYERS
    PRINT BUDGET
1
              HEAD IN LAYER   1 AT END OF TIME STEP  49 IN STRESS PERIOD    2
  ---------------------------------------------------------------------------

            1           2           3           4           5           6           7           8           9          10
           11          12          13          14          15          16          17          18          19          20
 ........................................................................................................................
   1    0.000       0.000       0.000       0.000       0.000       10.53       10.38       10.82       11.50       11.44    
        10.19       7.323       2.224     -0.2019       5.851       21.58       31.93       37.47       0.000       0.000    
   2    0.000       0.000       0.000       0.000       8.335       7.917       7.123       7.812       9.305       9.586    
        8.717       6.541       2.580     -0.2349       8.426       23.33       33.62       39.52       0.000       0.000    
   3    0.000       0.000       0.000       6.304       5.983       4.071       3.238       3.819       5.242       5.792    
        5.441       4.395       2.794     -0.3680       14.18       26.10       37.06       43.78       0.000       0.000    
   4    0.000       0.000       3.594       3.911       2.742     -0.3447     -0.1177     -0.1679     -0.3433     -0.2978    
      -0.3001     -0.2745       1.382     -0.3763       19.11       32.37       42.12       50.74       0.000       0.000    
   5    0.000       0.000      0.6704      3.7236E-02 -0.5286     -2.9129E-02   4.992       8.312       11.46       12.13    
        9.985      8.6157E-02 -0.3248       1.259       26.14       39.67       53.38       64.45       75.37       0.000    
   6    0.000     -0.4537     -0.5103     -0.2775       2.460       10.79       16.08       19.73       22.34       23.89    
        23.63       21.58       22.99       28.18       40.98       53.43       67.78       72.87       77.82       0.000    
   7    0.000       9.799       11.38       13.23       16.36       21.37       25.77       29.16       31.19       34.18    
        35.80       37.05       40.04       45.59       54.87       65.12       74.16       80.21       0.000       0.000    
   8    0.000       16.01       20.32       22.95       25.98       29.77       33.54       36.89       39.75       42.67    
        45.27       48.04       51.95       57.54       65.01       73.18       80.68       88.77       0.000       0.000    
   9    0.000       0.000       28.07       29.75       32.31       35.52       38.92       42.23       45.36       48.48    
        51.62       55.12       59.46       64.98       71.67       79.01       86.45       94.42       102.3       107.1    
  10    0.000       0.000       31.83       33.18       35.49       38.43       41.65       44.93       48.15       51.40    
        54.78       58.56       63.09       68.56       74.96       81.95       89.18       96.41       102.8       106.5    

 HEAD WILL BE SAVED ON UNIT   51 AT END OF TIME STEP   49, STRESS PERIOD    2

 DRAWDOWN WILL BE SAVED ON UNIT   52 AT END OF TIME STEP   49, STRESS PERIOD    2
1
  VOLUMETRIC BUDGET FOR ENTIRE MODEL AT END OF TIME STEP   49, STRESS PERIOD   2
  ------------------------------------------------------------------------------

     CUMULATIVE VOLUMES      L**3       RATES FOR THIS TIME STEP      L**3/T
     ------------------                 ------------------------

           IN:                                      IN:
           ---                                      ---
             STORAGE =      198890.2188               STORAGE =        2990.8350
       CONSTANT HEAD =           0.0000         CONSTANT HEAD =           0.0000
               WELLS =           0.0000                 WELLS =           0.0000
       RIVER LEAKAGE =           0.0000         RIVER LEAKAGE =           0.0000
            RECHARGE =     1655407.8750              RECHARGE =       33296.1602

            TOTAL IN =     1854298.1250              TOTAL IN =       36286.9961

          OUT:                                     OUT:
          ----                                     ----
             STORAGE =      393531.5938               STORAGE =        7900.9653
       CONSTANT HEAD =           0.0000         CONSTANT HEAD =           0.0000
               WELLS =       25472.4375                 WELLS =         509.4487
       RIVER LEAKAGE =     1435342.5000         RIVER LEAKAGE =       27877.7988
            RECHARGE =           0.0000              RECHARGE =           0.0000

           TOTAL OUT =     1854346.5000             TOTAL OUT =       36288.2109

            IN - OUT =         -48.3750              IN - OUT =          -1.2148

 PERCENT DISCREPANCY =          -0.00     PERCENT DISCREPANCY =          -0.00






         TIME SUMMARY AT END OF TIME STEP   49 IN STRESS PERIOD    2
                    SECONDS     MINUTES      HOURS       DAYS        YEARS
                    -----------------------------------------------------------
   TIME STEP LENGTH  86400.      1440.0      24.000      1.0000     2.73785E-03
 STRESS PERIOD TIME 4.23360E+06  70560.      1176.0      49.000     0.13415    
         TOTAL TIME 4.32000E+06  72000.      1200.0      50.000     0.13689    
1

 SOLVING FOR HEAD 

    ------------------------------------------------
       NWT REQUIRED            3 OUTER ITERATIONS 
       AND A TOTAL OF          3 INNER ITERATIONS.
    ------------------------------------------------

 OUTPUT CONTROL FOR STRESS PERIOD    2   TIME STEP   50
    SAVE HEAD FOR ALL LAYERS
    SAVE DRAWDOWN FOR ALL LAYERS
    SAVE BUDGET
    PRINT HEAD FOR ALL LAYERS
    PRINT BUDGET
1
              HEAD IN LAYER   1 AT END OF TIME STEP  50 IN STRESS PERIOD    2
  ---------------------------------------------------------------------------

            1           2           3           4           5           6           7           8           9          10
           11          12          13          14          15          16          17          18          19          20
 ........................................................................................................................
   1    0.000       0.000       0.000       0.000       0.000       10.53       10.39       10.82       11.51       11.44    
        10.19       7.324       2.225     -0.2023       5.852       21.58       31.93       37.47       0.000       0.000    
   2    0.000       0.000       0.000       0.000       8.337       7.918       7.125       7.813       9.307       9.587    
        8.719       6.543       2.581     -0.2353       8.427       23.33       33.62       39.53       0.000       0.000    
   3    0.000       0.000       0.000       6.306       5.985       4.072       3.239       3.821       5.243       5.793    
        5.442       4.397       2.796     -0.3687       14.18       26.10       37.07       43.79       0.000       0.000    
   4    0.000       0.000       3.596       3.912       2.743     -0.3452     -0.1181     -0.1684     -0.3439     -0.2985    
      -0.3006     -0.2748       1.383     -0.3770       19.11       32.38       42.12       50.75       0.000       0.000    
   5    0.000       0.000      0.6710      3.7209E-02 -0.5293     -2.9456E-02   4.993       8.313       11.46       12.14    
        9.986      8.5882E-02 -0.3255       1.259       26.14       39.67       53.38       64.45       75.37       0.000    
   6    0.000     -0.4543     -0.5111     -0.2780       2.460       10.79       16.08       19.73       22.34       23.89    
        23.64       21.58       23.00       28.18       40.98       53.43       67.79       72.87       77.82       0.000    
   7    0.000       9.800       11.38       13.23       16.36       21.37       25.77       29.16       31.19       34.19    
        35.80       37.05       40.05       45.59       54.87       65.12       74.17       80.22       0.000       0.000    
   8    0.000       16.01       20.32       22.96       25.98       29.77       33.54       36.90       39.75       42.67    
        45.27       48.05       51.95       57.54       65.01       73.18       80.68       88.77       0.000       0.000    
   9    0.000       0.000       28.07       29.75       32.32       35.52       38.92       42.23       45.36       48.48    
        51.62       55.12       59.46       64.98       71.67       79.01       86.45       94.42       102.3       107.1    
  10    0.000       0.000       31.83       33.18       35.49       38.43       41.66       44.93       48.15       51.40    
        54.78       58.57       63.09       68.57       74.96       81.95       89.18       96.42       102.8       106.5    

 HEAD WILL BE SAVED ON UNIT   51 AT END OF TIME STEP   50, STRESS PERIOD    2

 DRAWDOWN WILL BE SAVED ON UNIT   52 AT END OF TIME STEP   50, STRESS PERIOD    2
1
  VOLUMETRIC BUDGET FOR ENTIRE MODEL AT END OF TIME STEP   50, STRESS PERIOD   2
  ------------------------------------------------------------------------------

     CUMULATIVE VOLUMES      L**3       RATES FOR THIS TIME STEP      L**3/T
     ------------------                 ------------------------

           IN:                                      IN:
           ---                                      ---
             STORAGE =      201846.2969               STORAGE =        2956.0823
       CONSTANT HEAD =           0.0000         CONSTANT HEAD =           0.0000
               WELLS =           0.0000                 WELLS =           0.0000
       RIVER LEAKAGE =           0.0000         RIVER LEAKAGE =           0.0000
            RECHARGE =     1688704.0000              RECHARGE =       33296.1602

            TOTAL IN =     1890550.2500              TOTAL IN =       36252.2422

          OUT:                                     OUT:
          ----                                     ----
             STORAGE =      401427.7500               STORAGE =        7896.1616
       CONSTANT HEAD =           0.0000         CONSTANT HEAD =           0.0000
               WELLS =       25981.8867                 WELLS =         509.4487
       RIVER LEAKAGE =     1463190.3750         RIVER LEAKAGE =       27847.8574
            RECHARGE =           0.0000              RECHARGE =           0.0000

           TOTAL OUT =     1890600.0000             TOTAL OUT =       36253.4688

            IN - OUT =         -49.7500              IN - OUT =          -1.2266

 PERCENT DISCREPANCY =          -0.00     PERCENT DISCREPANCY =          -0.00






         TIME SUMMARY AT END OF TIME STEP   50 IN STRESS PERIOD    2
                    SECONDS     MINUTES      HOURS       DAYS        YEARS
                    -----------------------------------------------------------
   TIME STEP LENGTH  86400.      1440.0      24.000      1.0000     2.73785E-03
 STRESS PERIOD TIME 4.32000E+06  72000.      1200.0      50.000     0.13689    
         TOTAL TIME 4.40640E+06  73440.      1224.0      51.000     0.13963    
1

 SOLVING FOR HEAD 

    ------------------------------------------------
       NWT REQUIRED            3 OUTER ITERATIONS 
       AND A TOTAL OF          3 INNER ITERATIONS.
    ------------------------------------------------

 OUTPUT CONTROL FOR STRESS PERIOD    2   TIME STEP   51
    SAVE HEAD FOR ALL LAYERS
    SAVE DRAWDOWN FOR ALL LAYERS
    SAVE BUDGET
    PRINT HEAD FOR ALL LAYERS
    PRINT BUDGET
1
              HEAD IN LAYER   1 AT END OF TIME STEP  51 IN STRESS PERIOD    2
  ---------------------------------------------------------------------------

            1           2           3           4           5           6           7           8           9          10
           11          12          13          14          15          16          17          18          19          20
 ........................................................................................................................
   1    0.000       0.000       0.000       0.000       0.000       10.53       10.39       10.82       11.51       11.44    
        10.20       7.326       2.226     -0.2026       5.853       21.58       31.93       37.47       0.000       0.000    
   2    0.000       0.000       0.000       0.000       8.338       7.920       7.126       7.815       9.308       9.589    
        8.720       6.544       2.582     -0.2358       8.428       23.33       33.63       39.53       0.000       0.000    
   3    0.000       0.000       0.000       6.307       5.986       4.073       3.240       3.822       5.245       5.794    
        5.443       4.398       2.797     -0.3693       14.18       26.11       37.07       43.79       0.000       0.000    
   4    0.000       0.000       3.597       3.914       2.744     -0.3457     -0.1184     -0.1689     -0.3446     -0.2991    
      -0.3012     -0.2751       1.384     -0.3777       19.11       32.38       42.12       50.75       0.000       0.000    
   5    0.000       0.000      0.6717      3.7183E-02 -0.5300     -2.9780E-02   4.994       8.315       11.46       12.14    
        9.987      8.5623E-02 -0.3263       1.258       26.14       39.67       53.38       64.45       75.37       0.000    
   6    0.000     -0.4550     -0.5118     -0.2786       2.460       10.79       16.08       19.73       22.34       23.89    
        23.64       21.58       23.00       28.18       40.98       53.43       67.79       72.87       77.83       0.000    
   7    0.000       9.802       11.38       13.24       16.36       21.37       25.77       29.17       31.19       34.19    
        35.80       37.05       40.05       45.60       54.88       65.12       74.17       80.22       0.000       0.000    
   8    0.000       16.02       20.32       22.96       25.98       29.77       33.54       36.90       39.75       42.67    
        45.27       48.05       51.95       57.55       65.01       73.19       80.68       88.77       0.000       0.000    
   9    0.000       0.000       28.08       29.75       32.32       35.52       38.92       42.23       45.36       48.48    
        51.62       55.12       59.46       64.99       71.68       79.01       86.45       94.42       102.3       107.1    
  10    0.000       0.000       31.83       33.18       35.49       38.43       41.66       44.93       48.15       51.40    
        54.78       58.57       63.09       68.57       74.96       81.96       89.18       96.42       102.8       106.5    

 HEAD WILL BE SAVED ON UNIT   51 AT END OF TIME STEP   51, STRESS PERIOD    2

 DRAWDOWN WILL BE SAVED ON UNIT   52 AT END OF TIME STEP   51, STRESS PERIOD    2
1
  VOLUMETRIC BUDGET FOR ENTIRE MODEL AT END OF TIME STEP   51, STRESS PERIOD   2
  ------------------------------------------------------------------------------

     CUMULATIVE VOLUMES      L**3       RATES FOR THIS TIME STEP      L**3/T
     ------------------                 ------------------------

           IN:                                      IN:
           ---                                      ---
             STORAGE =      204768.0781               STORAGE =        2921.7778
       CONSTANT HEAD =           0.0000         CONSTANT HEAD =           0.0000
               WELLS =           0.0000                 WELLS =           0.0000
       RIVER LEAKAGE =           0.0000         RIVER LEAKAGE =           0.0000
            RECHARGE =     1722000.1250              RECHARGE =       33296.1602

            TOTAL IN =     1926768.2500              TOTAL IN =       36217.9375

          OUT:                                     OUT:
          ----                                     ----
             STORAGE =      409319.1250               STORAGE =        7891.3882
       CONSTANT HEAD =           0.0000         CONSTANT HEAD =           0.0000
               WELLS =       26491.3359                 WELLS =         509.4487
       RIVER LEAKAGE =     1491008.7500         RIVER LEAKAGE =       27818.3340
            RECHARGE =           0.0000              RECHARGE =           0.0000

           TOTAL OUT =     1926819.2500             TOTAL OUT =       36219.1719

            IN - OUT =         -51.0000              IN - OUT =          -1.2344

 PERCENT DISCREPANCY =          -0.00     PERCENT DISCREPANCY =          -0.00






         TIME SUMMARY AT END OF TIME STEP   51 IN STRESS PERIOD    2
                    SECONDS     MINUTES      HOURS       DAYS        YEARS
                    -----------------------------------------------------------
   TIME STEP LENGTH  86400.      1440.0      24.000      1.0000     2.73785E-03
 STRESS PERIOD TIME 4.40640E+06  73440.      1224.0      51.000     0.13963    
         TOTAL TIME 4.49280E+06  74880.      1248.0      52.000     0.14237    
1

 SOLVING FOR HEAD 

    ------------------------------------------------
       NWT REQUIRED            3 OUTER ITERATIONS 
       AND A TOTAL OF          3 INNER ITERATIONS.
    ------------------------------------------------

 OUTPUT CONTROL FOR STRESS PERIOD    2   TIME STEP   52
    SAVE HEAD FOR ALL LAYERS
    SAVE DRAWDOWN FOR ALL LAYERS
    SAVE BUDGET
    PRINT HEAD FOR ALL LAYERS
    PRINT BUDGET
1
              HEAD IN LAYER   1 AT END OF TIME STEP  52 IN STRESS PERIOD    2
  ---------------------------------------------------------------------------

            1           2           3           4           5           6           7           8           9          10
           11          12          13          14          15          16          17          18          19          20
 ........................................................................................................................
   1    0.000       0.000       0.000       0.000       0.000       10.53       10.39       10.83       11.51       11.44    
        10.20       7.327       2.227     -0.2030       5.854       21.58       31.93       37.47       0.000       0.000    
   2    0.000       0.000       0.000       0.000       8.340       7.921       7.128       7.816       9.310       9.590    
        8.722       6.546       2.584     -0.2362       8.430       23.34       33.63       39.53       0.000       0.000    
   3    0.000       0.000       0.000       6.309       5.988       4.074       3.241       3.823       5.246       5.796    
        5.445       4.400       2.798     -0.3699       14.19       26.11       37.07       43.79       0.000       0.000    
   4    0.000       0.000       3.599       3.915       2.746     -0.3462     -0.1188     -0.1694     -0.3452     -0.2997    
      -0.3018     -0.2753       1.385     -0.3785       19.11       32.38       42.12       50.75       0.000       0.000    
   5    0.000       0.000      0.6723      3.7159E-02 -0.5307     -3.0102E-02   4.996       8.316       11.46       12.14    
        9.989      8.5381E-02 -0.3270       1.258       26.14       39.67       53.38       64.45       75.37       0.000    
   6    0.000     -0.4557     -0.5126     -0.2792       2.461       10.79       16.08       19.73       22.34       23.89    
        23.64       21.58       23.00       28.19       40.98       53.43       67.79       72.87       77.83       0.000    
   7    0.000       9.803       11.39       13.24       16.36       21.37       25.77       29.17       31.20       34.19    
        35.80       37.05       40.05       45.60       54.88       65.12       74.17       80.22       0.000       0.000    
   8    0.000       16.02       20.33       22.96       25.98       29.78       33.55       36.90       39.75       42.67    
        45.27       48.05       51.95       57.55       65.02       73.19       80.68       88.77       0.000       0.000    
   9    0.000       0.000       28.08       29.75       32.32       35.52       38.92       42.23       45.36       48.48    
        51.63       55.12       59.47       64.99       71.68       79.01       86.46       94.42       102.3       107.1    
  10    0.000       0.000       31.83       33.18       35.49       38.43       41.66       44.93       48.16       51.40    
        54.78       58.57       63.09       68.57       74.96       81.96       89.18       96.42       102.8       106.5    

 HEAD WILL BE SAVED ON UNIT   51 AT END OF TIME STEP   52, STRESS PERIOD    2

 DRAWDOWN WILL BE SAVED ON UNIT   52 AT END OF TIME STEP   52, STRESS PERIOD    2
1
  VOLUMETRIC BUDGET FOR ENTIRE MODEL AT END OF TIME STEP   52, STRESS PERIOD   2
  ------------------------------------------------------------------------------

     CUMULATIVE VOLUMES      L**3       RATES FOR THIS TIME STEP      L**3/T
     ------------------                 ------------------------

           IN:                                      IN:
           ---                                      ---
             STORAGE =      207656.0000               STORAGE =        2887.9143
       CONSTANT HEAD =           0.0000         CONSTANT HEAD =           0.0000
               WELLS =           0.0000                 WELLS =           0.0000
       RIVER LEAKAGE =           0.0000         RIVER LEAKAGE =           0.0000
            RECHARGE =     1755296.2500              RECHARGE =       33296.1602

            TOTAL IN =     1962952.2500              TOTAL IN =       36184.0742

          OUT:                                     OUT:
          ----                                     ----
             STORAGE =      417205.7812               STORAGE =        7886.6445
       CONSTANT HEAD =           0.0000         CONSTANT HEAD =           0.0000
               WELLS =       27000.7852                 WELLS =         509.4487
       RIVER LEAKAGE =     1518798.0000         RIVER LEAKAGE =       27789.2227
            RECHARGE =           0.0000              RECHARGE =           0.0000

           TOTAL OUT =     1963004.5000             TOTAL OUT =       36185.3164

            IN - OUT =         -52.2500              IN - OUT =          -1.2422

 PERCENT DISCREPANCY =          -0.00     PERCENT DISCREPANCY =          -0.00






         TIME SUMMARY AT END OF TIME STEP   52 IN STRESS PERIOD    2
                    SECONDS     MINUTES      HOURS       DAYS        YEARS
                    -----------------------------------------------------------
   TIME STEP LENGTH  86400.      1440.0      24.000      1.0000     2.73785E-03
 STRESS PERIOD TIME 4.49280E+06  74880.      1248.0      52.000     0.14237    
         TOTAL TIME 4.57920E+06  76320.      1272.0      53.000     0.14511    
1

 SOLVING FOR HEAD 

    ------------------------------------------------
       NWT REQUIRED            3 OUTER ITERATIONS 
       AND A TOTAL OF          3 INNER ITERATIONS.
    ------------------------------------------------

 OUTPUT CONTROL FOR STRESS PERIOD    2   TIME STEP   53
    SAVE HEAD FOR ALL LAYERS
    SAVE DRAWDOWN FOR ALL LAYERS
    SAVE BUDGET
    PRINT HEAD FOR ALL LAYERS
    PRINT BUDGET
1
              HEAD IN LAYER   1 AT END OF TIME STEP  53 IN STRESS PERIOD    2
  ---------------------------------------------------------------------------

            1           2           3           4           5           6           7           8           9          10
           11          12          13          14          15          16          17          18          19          20
 ........................................................................................................................
   1    0.000       0.000       0.000       0.000       0.000       10.54       10.39       10.83       11.51       11.44    
        10.20       7.329       2.229     -0.2033       5.855       21.58       31.93       37.47       0.000       0.000    
   2    0.000       0.000       0.000       0.000       8.341       7.923       7.129       7.818       9.311       9.592    
        8.723       6.547       2.585     -0.2367       8.431       23.34       33.63       39.53       0.000       0.000    
   3    0.000       0.000       0.000       6.311       5.989       4.076       3.242       3.824       5.247       5.797    
        5.446       4.401       2.800     -0.3706       14.19       26.11       37.07       43.79       0.000       0.000    
   4    0.000       0.000       3.600       3.917       2.747     -0.3467     -0.1192     -0.1699     -0.3458     -0.3003    
      -0.3023     -0.2756       1.386     -0.3791       19.12       32.38       42.12       50.75       0.000       0.000    
   5    0.000       0.000      0.6729      3.7137E-02 -0.5313     -3.0422E-02   4.997       8.317       11.47       12.14    
        9.990      8.5154E-02 -0.3277       1.257       26.14       39.67       53.38       64.45       75.38       0.000    
   6    0.000     -0.4563     -0.5134     -0.2798       2.461       10.79       16.08       19.73       22.35       23.89    
        23.64       21.59       23.00       28.19       40.98       53.43       67.79       72.87       77.83       0.000    
   7    0.000       9.804       11.39       13.24       16.36       21.37       25.77       29.17       31.20       34.19    
        35.80       37.06       40.05       45.60       54.88       65.13       74.17       80.22       0.000       0.000    
   8    0.000       16.02       20.33       22.96       25.98       29.78       33.55       36.90       39.75       42.67    
        45.27       48.05       51.95       57.55       65.02       73.19       80.68       88.77       0.000       0.000    
   9    0.000       0.000       28.08       29.75       32.32       35.52       38.93       42.23       45.37       48.49    
        51.63       55.12       59.47       64.99       71.68       79.01       86.46       94.43       102.3       107.1    
  10    0.000       0.000       31.83       33.18       35.49       38.43       41.66       44.93       48.16       51.40    
        54.79       58.57       63.09       68.57       74.97       81.96       89.18       96.42       102.8       106.5    

 HEAD WILL BE SAVED ON UNIT   51 AT END OF TIME STEP   53, STRESS PERIOD    2

 DRAWDOWN WILL BE SAVED ON UNIT   52 AT END OF TIME STEP   53, STRESS PERIOD    2
1
  VOLUMETRIC BUDGET FOR ENTIRE MODEL AT END OF TIME STEP   53, STRESS PERIOD   2
  ------------------------------------------------------------------------------

     CUMULATIVE VOLUMES      L**3       RATES FOR THIS TIME STEP      L**3/T
     ------------------                 ------------------------

           IN:                                      IN:
           ---                                      ---
             STORAGE =      210510.4844               STORAGE =        2854.4841
       CONSTANT HEAD =           0.0000         CONSTANT HEAD =           0.0000
               WELLS =           0.0000                 WELLS =           0.0000
       RIVER LEAKAGE =           0.0000         RIVER LEAKAGE =           0.0000
            RECHARGE =     1788592.3750              RECHARGE =       33296.1602

            TOTAL IN =     1999102.8750              TOTAL IN =       36150.6445

          OUT:                                     OUT:
          ----                                     ----
             STORAGE =      425087.7188               STORAGE =        7881.9302
       CONSTANT HEAD =           0.0000         CONSTANT HEAD =           0.0000
               WELLS =       27510.2344                 WELLS =         509.4487
       RIVER LEAKAGE =     1546558.5000         RIVER LEAKAGE =       27760.5137
            RECHARGE =           0.0000              RECHARGE =           0.0000

           TOTAL OUT =     1999156.5000             TOTAL OUT =       36151.8906

            IN - OUT =         -53.6250              IN - OUT =          -1.2461

 PERCENT DISCREPANCY =          -0.00     PERCENT DISCREPANCY =          -0.00






         TIME SUMMARY AT END OF TIME STEP   53 IN STRESS PERIOD    2
                    SECONDS     MINUTES      HOURS       DAYS        YEARS
                    -----------------------------------------------------------
   TIME STEP LENGTH  86400.      1440.0      24.000      1.0000     2.73785E-03
 STRESS PERIOD TIME 4.57920E+06  76320.      1272.0      53.000     0.14511    
         TOTAL TIME 4.66560E+06  77760.      1296.0      54.000     0.14784    
1

 SOLVING FOR HEAD 

    ------------------------------------------------
       NWT REQUIRED            3 OUTER ITERATIONS 
       AND A TOTAL OF          3 INNER ITERATIONS.
    ------------------------------------------------

 OUTPUT CONTROL FOR STRESS PERIOD    2   TIME STEP   54
    SAVE HEAD FOR ALL LAYERS
    SAVE DRAWDOWN FOR ALL LAYERS
    SAVE BUDGET
    PRINT HEAD FOR ALL LAYERS
    PRINT BUDGET
1
              HEAD IN LAYER   1 AT END OF TIME STEP  54 IN STRESS PERIOD    2
  ---------------------------------------------------------------------------

            1           2           3           4           5           6           7           8           9          10
           11          12          13          14          15          16          17          18          19          20
 ........................................................................................................................
   1    0.000       0.000       0.000       0.000       0.000       10.54       10.39       10.83       11.51       11.45    
        10.20       7.330       2.230     -0.2037       5.856       21.58       31.93       37.47       0.000       0.000    
   2    0.000       0.000       0.000       0.000       8.343       7.924       7.131       7.819       9.313       9.594    
        8.725       6.549       2.586     -0.2371       8.432       23.34       33.63       39.53       0.000       0.000    
   3    0.000       0.000       0.000       6.312       5.991       4.077       3.243       3.825       5.249       5.799    
        5.447       4.403       2.801     -0.3712       14.19       26.11       37.07       43.79       0.000       0.000    
   4    0.000       0.000       3.602       3.918       2.748     -0.3472     -0.1195     -0.1703     -0.3464     -0.3008    
      -0.3028     -0.2759       1.388     -0.3798       19.12       32.38       42.12       50.75       0.000       0.000    
   5    0.000       0.000      0.6735      3.7116E-02 -0.5320     -3.0740E-02   4.998       8.319       11.47       12.14    
        9.991      8.4941E-02 -0.3284       1.257       26.14       39.68       53.38       64.45       75.38       0.000    
   6    0.000     -0.4570     -0.5141     -0.2803       2.461       10.79       16.08       19.74       22.35       23.90    
        23.64       21.59       23.00       28.19       40.99       53.43       67.79       72.88       77.83       0.000    
   7    0.000       9.806       11.39       13.24       16.36       21.37       25.77       29.17       31.20       34.19    
        35.81       37.06       40.05       45.60       54.88       65.13       74.17       80.22       0.000       0.000    
   8    0.000       16.02       20.33       22.96       25.98       29.78       33.55       36.90       39.76       42.67    
        45.27       48.05       51.95       57.55       65.02       73.19       80.68       88.77       0.000       0.000    
   9    0.000       0.000       28.08       29.75       32.32       35.53       38.93       42.23       45.37       48.49    
        51.63       55.12       59.47       64.99       71.68       79.01       86.46       94.43       102.3       107.1    
  10    0.000       0.000       31.83       33.18       35.49       38.43       41.66       44.93       48.16       51.40    
        54.79       58.57       63.09       68.57       74.97       81.96       89.19       96.42       102.8       106.5    

 HEAD WILL BE SAVED ON UNIT   51 AT END OF TIME STEP   54, STRESS PERIOD    2

 DRAWDOWN WILL BE SAVED ON UNIT   52 AT END OF TIME STEP   54, STRESS PERIOD    2
1
  VOLUMETRIC BUDGET FOR ENTIRE MODEL AT END OF TIME STEP   54, STRESS PERIOD   2
  ------------------------------------------------------------------------------

     CUMULATIVE VOLUMES      L**3       RATES FOR THIS TIME STEP      L**3/T
     ------------------                 ------------------------

           IN:                                      IN:
           ---                                      ---
             STORAGE =      213331.9688               STORAGE =        2821.4800
       CONSTANT HEAD =           0.0000         CONSTANT HEAD =           0.0000
               WELLS =           0.0000                 WELLS =           0.0000
       RIVER LEAKAGE =           0.0000         RIVER LEAKAGE =           0.0000
            RECHARGE =     1821888.5000              RECHARGE =       33296.1602

            TOTAL IN =     2035220.5000              TOTAL IN =       36117.6406

          OUT:                                     OUT:
          ----                                     ----
             STORAGE =      432964.9688               STORAGE =        7877.2446
       CONSTANT HEAD =           0.0000         CONSTANT HEAD =           0.0000
               WELLS =       28019.6836                 WELLS =         509.4487
       RIVER LEAKAGE =     1574290.7500         RIVER LEAKAGE =       27732.2012
            RECHARGE =           0.0000              RECHARGE =           0.0000

           TOTAL OUT =     2035275.3750             TOTAL OUT =       36118.8945

            IN - OUT =         -54.8750              IN - OUT =          -1.2539

 PERCENT DISCREPANCY =          -0.00     PERCENT DISCREPANCY =          -0.00






         TIME SUMMARY AT END OF TIME STEP   54 IN STRESS PERIOD    2
                    SECONDS     MINUTES      HOURS       DAYS        YEARS
                    -----------------------------------------------------------
   TIME STEP LENGTH  86400.      1440.0      24.000      1.0000     2.73785E-03
 STRESS PERIOD TIME 4.66560E+06  77760.      1296.0      54.000     0.14784    
         TOTAL TIME 4.75200E+06  79200.      1320.0      55.000     0.15058    
1

 SOLVING FOR HEAD 

    ------------------------------------------------
       NWT REQUIRED            3 OUTER ITERATIONS 
       AND A TOTAL OF          3 INNER ITERATIONS.
    ------------------------------------------------

 OUTPUT CONTROL FOR STRESS PERIOD    2   TIME STEP   55
    SAVE HEAD FOR ALL LAYERS
    SAVE DRAWDOWN FOR ALL LAYERS
    SAVE BUDGET
    PRINT HEAD FOR ALL LAYERS
    PRINT BUDGET
1
              HEAD IN LAYER   1 AT END OF TIME STEP  55 IN STRESS PERIOD    2
  ---------------------------------------------------------------------------

            1           2           3           4           5           6           7           8           9          10
           11          12          13          14          15          16          17          18          19          20
 ........................................................................................................................
   1    0.000       0.000       0.000       0.000       0.000       10.54       10.39       10.83       11.51       11.45    
        10.20       7.332       2.231     -0.2040       5.858       21.59       31.94       37.48       0.000       0.000    
   2    0.000       0.000       0.000       0.000       8.344       7.926       7.132       7.821       9.314       9.595    
        8.727       6.550       2.587     -0.2376       8.433       23.34       33.63       39.53       0.000       0.000    
   3    0.000       0.000       0.000       6.314       5.992       4.078       3.244       3.827       5.250       5.800    
        5.449       4.404       2.803     -0.3718       14.19       26.11       37.07       43.79       0.000       0.000    
   4    0.000       0.000       3.603       3.919       2.749     -0.3477     -0.1199     -0.1708     -0.3470     -0.3014    
      -0.3034     -0.2761       1.389     -0.3805       19.12       32.38       42.12       50.75       0.000       0.000    
   5    0.000       0.000      0.6742      3.7097E-02 -0.5326     -3.1055E-02   4.999       8.320       11.47       12.14    
        9.992      8.4741E-02 -0.3291       1.257       26.15       39.68       53.39       64.45       75.38       0.000    
   6    0.000     -0.4576     -0.5148     -0.2809       2.462       10.79       16.09       19.74       22.35       23.90    
        23.64       21.59       23.00       28.19       40.99       53.44       67.79       72.88       77.83       0.000    
   7    0.000       9.807       11.39       13.24       16.36       21.38       25.78       29.17       31.20       34.19    
        35.81       37.06       40.05       45.60       54.88       65.13       74.17       80.22       0.000       0.000    
   8    0.000       16.02       20.33       22.96       25.99       29.78       33.55       36.90       39.76       42.68    
        45.28       48.05       51.96       57.55       65.02       73.19       80.69       88.78       0.000       0.000    
   9    0.000       0.000       28.08       29.75       32.32       35.53       38.93       42.24       45.37       48.49    
        51.63       55.13       59.47       64.99       71.68       79.02       86.46       94.43       102.3       107.1    
  10    0.000       0.000       31.84       33.19       35.49       38.44       41.66       44.94       48.16       51.41    
        54.79       58.57       63.10       68.57       74.97       81.96       89.19       96.42       102.8       106.5    

 HEAD WILL BE SAVED ON UNIT   51 AT END OF TIME STEP   55, STRESS PERIOD    2

 DRAWDOWN WILL BE SAVED ON UNIT   52 AT END OF TIME STEP   55, STRESS PERIOD    2
1
  VOLUMETRIC BUDGET FOR ENTIRE MODEL AT END OF TIME STEP   55, STRESS PERIOD   2
  ------------------------------------------------------------------------------

     CUMULATIVE VOLUMES      L**3       RATES FOR THIS TIME STEP      L**3/T
     ------------------                 ------------------------

           IN:                                      IN:
           ---                                      ---
             STORAGE =      216120.8594               STORAGE =        2788.8950
       CONSTANT HEAD =           0.0000         CONSTANT HEAD =           0.0000
               WELLS =           0.0000                 WELLS =           0.0000
       RIVER LEAKAGE =           0.0000         RIVER LEAKAGE =           0.0000
            RECHARGE =     1855184.6250              RECHARGE =       33296.1602

            TOTAL IN =     2071305.5000              TOTAL IN =       36085.0547

          OUT:                                     OUT:
          ----                                     ----
             STORAGE =      440837.5625               STORAGE =        7872.5874
       CONSTANT HEAD =           0.0000         CONSTANT HEAD =           0.0000
               WELLS =       28529.1328                 WELLS =         509.4487
       RIVER LEAKAGE =     1601995.0000         RIVER LEAKAGE =       27704.2812
            RECHARGE =           0.0000              RECHARGE =           0.0000

           TOTAL OUT =     2071361.7500             TOTAL OUT =       36086.3164

            IN - OUT =         -56.2500              IN - OUT =          -1.2617

 PERCENT DISCREPANCY =          -0.00     PERCENT DISCREPANCY =          -0.00






         TIME SUMMARY AT END OF TIME STEP   55 IN STRESS PERIOD    2
                    SECONDS     MINUTES      HOURS       DAYS        YEARS
                    -----------------------------------------------------------
   TIME STEP LENGTH  86400.      1440.0      24.000      1.0000     2.73785E-03
 STRESS PERIOD TIME 4.75200E+06  79200.      1320.0      55.000     0.15058    
         TOTAL TIME 4.83840E+06  80640.      1344.0      56.000     0.15332    
1

 SOLVING FOR HEAD 

    ------------------------------------------------
       NWT REQUIRED            3 OUTER ITERATIONS 
       AND A TOTAL OF          3 INNER ITERATIONS.
    ------------------------------------------------

 OUTPUT CONTROL FOR STRESS PERIOD    2   TIME STEP   56
    SAVE HEAD FOR ALL LAYERS
    SAVE DRAWDOWN FOR ALL LAYERS
    SAVE BUDGET
    PRINT HEAD FOR ALL LAYERS
    PRINT BUDGET
1
              HEAD IN LAYER   1 AT END OF TIME STEP  56 IN STRESS PERIOD    2
  ---------------------------------------------------------------------------

            1           2           3           4           5           6           7           8           9          10
           11          12          13          14          15          16          17          18          19          20
 ........................................................................................................................
   1    0.000       0.000       0.000       0.000       0.000       10.54       10.39       10.83       11.51       11.45    
        10.20       7.334       2.232     -0.2043       5.859       21.59       31.94       37.48       0.000       0.000    
   2    0.000       0.000       0.000       0.000       8.346       7.927       7.134       7.822       9.316       9.597    
        8.728       6.552       2.588     -0.2380       8.435       23.34       33.63       39.53       0.000       0.000    
   3    0.000       0.000       0.000       6.315       5.994       4.079       3.245       3.828       5.251       5.801    
        5.450       4.405       2.804     -0.3724       14.19       26.11       37.08       43.79       0.000       0.000    
   4    0.000       0.000       3.605       3.921       2.750     -0.3481     -0.1202     -0.1713     -0.3476     -0.3020    
      -0.3039     -0.2764       1.390     -0.3812       19.12       32.39       42.13       50.76       0.000       0.000    
   5    0.000       0.000      0.6748      3.7080E-02 -0.5332     -3.1368E-02   5.000       8.321       11.47       12.14    
        9.993      8.4555E-02 -0.3298       1.257       26.15       39.68       53.39       64.46       75.38       0.000    
   6    0.000     -0.4582     -0.5155     -0.2814       2.462       10.80       16.09       19.74       22.35       23.90    
        23.64       21.59       23.00       28.19       40.99       53.44       67.79       72.88       77.83       0.000    
   7    0.000       9.808       11.39       13.24       16.37       21.38       25.78       29.17       31.20       34.19    
        35.81       37.06       40.05       45.60       54.88       65.13       74.17       80.23       0.000       0.000    
   8    0.000       16.02       20.33       22.97       25.99       29.78       33.55       36.91       39.76       42.68    
        45.28       48.05       51.96       57.55       65.02       73.19       80.69       88.78       0.000       0.000    
   9    0.000       0.000       28.08       29.76       32.32       35.53       38.93       42.24       45.37       48.49    
        51.63       55.13       59.47       64.99       71.68       79.02       86.46       94.43       102.3       107.1    
  10    0.000       0.000       31.84       33.19       35.50       38.44       41.67       44.94       48.16       51.41    
        54.79       58.57       63.10       68.58       74.97       81.96       89.19       96.42       102.8       106.5    

 HEAD WILL BE SAVED ON UNIT   51 AT END OF TIME STEP   56, STRESS PERIOD    2

 DRAWDOWN WILL BE SAVED ON UNIT   52 AT END OF TIME STEP   56, STRESS PERIOD    2
1
  VOLUMETRIC BUDGET FOR ENTIRE MODEL AT END OF TIME STEP   56, STRESS PERIOD   2
  ------------------------------------------------------------------------------

     CUMULATIVE VOLUMES      L**3       RATES FOR THIS TIME STEP      L**3/T
     ------------------                 ------------------------

           IN:                                      IN:
           ---                                      ---
             STORAGE =      218877.5781               STORAGE =        2756.7224
       CONSTANT HEAD =           0.0000         CONSTANT HEAD =           0.0000
               WELLS =           0.0000                 WELLS =           0.0000
       RIVER LEAKAGE =           0.0000         RIVER LEAKAGE =           0.0000
            RECHARGE =     1888480.7500              RECHARGE =       33296.1602

            TOTAL IN =     2107358.2500              TOTAL IN =       36052.8828

          OUT:                                     OUT:
          ----                                     ----
             STORAGE =      448705.5312               STORAGE =        7867.9585
       CONSTANT HEAD =           0.0000         CONSTANT HEAD =           0.0000
               WELLS =       29038.5820                 WELLS =         509.4487
       RIVER LEAKAGE =     1629671.7500         RIVER LEAKAGE =       27676.7441
            RECHARGE =           0.0000              RECHARGE =           0.0000

           TOTAL OUT =     2107416.0000             TOTAL OUT =       36054.1523

            IN - OUT =         -57.7500              IN - OUT =          -1.2695

 PERCENT DISCREPANCY =          -0.00     PERCENT DISCREPANCY =          -0.00






         TIME SUMMARY AT END OF TIME STEP   56 IN STRESS PERIOD    2
                    SECONDS     MINUTES      HOURS       DAYS        YEARS
                    -----------------------------------------------------------
   TIME STEP LENGTH  86400.      1440.0      24.000      1.0000     2.73785E-03
 STRESS PERIOD TIME 4.83840E+06  80640.      1344.0      56.000     0.15332    
         TOTAL TIME 4.92480E+06  82080.      1368.0      57.000     0.15606    
1

 SOLVING FOR HEAD 

    ------------------------------------------------
       NWT REQUIRED            3 OUTER ITERATIONS 
       AND A TOTAL OF          3 INNER ITERATIONS.
    ------------------------------------------------

 OUTPUT CONTROL FOR STRESS PERIOD    2   TIME STEP   57
    SAVE HEAD FOR ALL LAYERS
    SAVE DRAWDOWN FOR ALL LAYERS
    SAVE BUDGET
    PRINT HEAD FOR ALL LAYERS
    PRINT BUDGET
1
              HEAD IN LAYER   1 AT END OF TIME STEP  57 IN STRESS PERIOD    2
  ---------------------------------------------------------------------------

            1           2           3           4           5           6           7           8           9          10
           11          12          13          14          15          16          17          18          19          20
 ........................................................................................................................
   1    0.000       0.000       0.000       0.000       0.000       10.54       10.40       10.83       11.52       11.45    
        10.20       7.335       2.233     -0.2047       5.860       21.59       31.94       37.48       0.000       0.000    
   2    0.000       0.000       0.000       0.000       8.347       7.929       7.135       7.824       9.317       9.598    
        8.730       6.553       2.590     -0.2385       8.436       23.34       33.63       39.54       0.000       0.000    
   3    0.000       0.000       0.000       6.317       5.995       4.081       3.246       3.829       5.253       5.803    
        5.452       4.407       2.805     -0.3730       14.19       26.11       37.08       43.80       0.000       0.000    
   4    0.000       0.000       3.606       3.922       2.751     -0.3486     -0.1206     -0.1717     -0.3482     -0.3026    
      -0.3044     -0.2767       1.391     -0.3818       19.12       32.39       42.13       50.76       0.000       0.000    
   5    0.000       0.000      0.6754      3.7064E-02 -0.5339     -3.1680E-02   5.001       8.323       11.47       12.14    
        9.995      8.4380E-02 -0.3305       1.256       26.15       39.68       53.39       64.46       75.38       0.000    
   6    0.000     -0.4589     -0.5162     -0.2820       2.462       10.80       16.09       19.74       22.35       23.90    
        23.65       21.59       23.01       28.19       40.99       53.44       67.80       72.88       77.84       0.000    
   7    0.000       9.810       11.39       13.24       16.37       21.38       25.78       29.18       31.20       34.20    
        35.81       37.06       40.06       45.60       54.88       65.13       74.18       80.23       0.000       0.000    
   8    0.000       16.03       20.33       22.97       25.99       29.78       33.55       36.91       39.76       42.68    
        45.28       48.06       51.96       57.55       65.02       73.20       80.69       88.78       0.000       0.000    
   9    0.000       0.000       28.09       29.76       32.33       35.53       38.93       42.24       45.37       48.49    
        51.63       55.13       59.47       64.99       71.69       79.02       86.46       94.43       102.3       107.1    
  10    0.000       0.000       31.84       33.19       35.50       38.44       41.67       44.94       48.16       51.41    
        54.79       58.58       63.10       68.58       74.97       81.97       89.19       96.43       102.8       106.5    

 HEAD WILL BE SAVED ON UNIT   51 AT END OF TIME STEP   57, STRESS PERIOD    2

 DRAWDOWN WILL BE SAVED ON UNIT   52 AT END OF TIME STEP   57, STRESS PERIOD    2
1
  VOLUMETRIC BUDGET FOR ENTIRE MODEL AT END OF TIME STEP   57, STRESS PERIOD   2
  ------------------------------------------------------------------------------

     CUMULATIVE VOLUMES      L**3       RATES FOR THIS TIME STEP      L**3/T
     ------------------                 ------------------------

           IN:                                      IN:
           ---                                      ---
             STORAGE =      221602.5312               STORAGE =        2724.9553
       CONSTANT HEAD =           0.0000         CONSTANT HEAD =           0.0000
               WELLS =           0.0000                 WELLS =           0.0000
       RIVER LEAKAGE =           0.0000         RIVER LEAKAGE =           0.0000
            RECHARGE =     1921776.8750              RECHARGE =       33296.1602

            TOTAL IN =     2143379.5000              TOTAL IN =       36021.1172

          OUT:                                     OUT:
          ----                                     ----
             STORAGE =      456568.8750               STORAGE =        7863.3569
       CONSTANT HEAD =           0.0000         CONSTANT HEAD =           0.0000
               WELLS =       29548.0312                 WELLS =         509.4487
       RIVER LEAKAGE =     1657321.3750         RIVER LEAKAGE =       27649.5859
            RECHARGE =           0.0000              RECHARGE =           0.0000

           TOTAL OUT =     2143438.2500             TOTAL OUT =       36022.3906

            IN - OUT =         -58.7500              IN - OUT =          -1.2734

 PERCENT DISCREPANCY =          -0.00     PERCENT DISCREPANCY =          -0.00






         TIME SUMMARY AT END OF TIME STEP   57 IN STRESS PERIOD    2
                    SECONDS     MINUTES      HOURS       DAYS        YEARS
                    -----------------------------------------------------------
   TIME STEP LENGTH  86400.      1440.0      24.000      1.0000     2.73785E-03
 STRESS PERIOD TIME 4.92480E+06  82080.      1368.0      57.000     0.15606    
         TOTAL TIME 5.01120E+06  83520.      1392.0      58.000     0.15880    
1

 SOLVING FOR HEAD 

    ------------------------------------------------
       NWT REQUIRED            3 OUTER ITERATIONS 
       AND A TOTAL OF          3 INNER ITERATIONS.
    ------------------------------------------------

 OUTPUT CONTROL FOR STRESS PERIOD    2   TIME STEP   58
    SAVE HEAD FOR ALL LAYERS
    SAVE DRAWDOWN FOR ALL LAYERS
    SAVE BUDGET
    PRINT HEAD FOR ALL LAYERS
    PRINT BUDGET
1
              HEAD IN LAYER   1 AT END OF TIME STEP  58 IN STRESS PERIOD    2
  ---------------------------------------------------------------------------

            1           2           3           4           5           6           7           8           9          10
           11          12          13          14          15          16          17          18          19          20
 ........................................................................................................................
   1    0.000       0.000       0.000       0.000       0.000       10.54       10.40       10.83       11.52       11.45    
        10.21       7.337       2.234     -0.2050       5.861       21.59       31.94       37.48       0.000       0.000    
   2    0.000       0.000       0.000       0.000       8.349       7.930       7.137       7.825       9.319       9.600    
        8.731       6.555       2.591     -0.2389       8.437       23.35       33.64       39.54       0.000       0.000    
   3    0.000       0.000       0.000       6.318       5.997       4.082       3.247       3.830       5.254       5.804    
        5.453       4.408       2.807     -0.3736       14.19       26.12       37.08       43.80       0.000       0.000    
   4    0.000       0.000       3.608       3.924       2.753     -0.3490     -0.1209     -0.1722     -0.3488     -0.3031    
      -0.3050     -0.2769       1.392     -0.3825       19.12       32.39       42.13       50.76       0.000       0.000    
   5    0.000       0.000      0.6760      3.7050E-02 -0.5345     -3.1988E-02   5.002       8.324       11.47       12.15    
        9.996      8.4217E-02 -0.3312       1.256       26.15       39.68       53.39       64.46       75.38       0.000    
   6    0.000     -0.4595     -0.5169     -0.2825       2.462       10.80       16.09       19.74       22.35       23.90    
        23.65       21.59       23.01       28.19       40.99       53.44       67.80       72.88       77.84       0.000    
   7    0.000       9.811       11.39       13.25       16.37       21.38       25.78       29.18       31.21       34.20    
        35.81       37.06       40.06       45.61       54.89       65.13       74.18       80.23       0.000       0.000    
   8    0.000       16.03       20.33       22.97       25.99       29.79       33.56       36.91       39.76       42.68    
        45.28       48.06       51.96       57.56       65.02       73.20       80.69       88.78       0.000       0.000    
   9    0.000       0.000       28.09       29.76       32.33       35.53       38.93       42.24       45.37       48.49    
        51.64       55.13       59.47       65.00       71.69       79.02       86.46       94.43       102.3       107.1    
  10    0.000       0.000       31.84       33.19       35.50       38.44       41.67       44.94       48.17       51.41    
        54.79       58.58       63.10       68.58       74.97       81.97       89.19       96.43       102.8       106.5    

 HEAD WILL BE SAVED ON UNIT   51 AT END OF TIME STEP   58, STRESS PERIOD    2

 DRAWDOWN WILL BE SAVED ON UNIT   52 AT END OF TIME STEP   58, STRESS PERIOD    2
1
  VOLUMETRIC BUDGET FOR ENTIRE MODEL AT END OF TIME STEP   58, STRESS PERIOD   2
  ------------------------------------------------------------------------------

     CUMULATIVE VOLUMES      L**3       RATES FOR THIS TIME STEP      L**3/T
     ------------------                 ------------------------

           IN:                                      IN:
           ---                                      ---
             STORAGE =      224296.1250               STORAGE =        2693.5869
       CONSTANT HEAD =           0.0000         CONSTANT HEAD =           0.0000
               WELLS =           0.0000                 WELLS =           0.0000
       RIVER LEAKAGE =           0.0000         RIVER LEAKAGE =           0.0000
            RECHARGE =     1955073.0000              RECHARGE =       33296.1602

            TOTAL IN =     2179369.0000              TOTAL IN =       35989.7461

          OUT:                                     OUT:
          ----                                     ----
             STORAGE =      464427.6562               STORAGE =        7858.7832
       CONSTANT HEAD =           0.0000         CONSTANT HEAD =           0.0000
               WELLS =       30057.4805                 WELLS =         509.4487
       RIVER LEAKAGE =     1684944.1250         RIVER LEAKAGE =       27622.7988
            RECHARGE =           0.0000              RECHARGE =           0.0000

           TOTAL OUT =     2179429.2500             TOTAL OUT =       35991.0312

            IN - OUT =         -60.2500              IN - OUT =          -1.2852

 PERCENT DISCREPANCY =          -0.00     PERCENT DISCREPANCY =          -0.00






         TIME SUMMARY AT END OF TIME STEP   58 IN STRESS PERIOD    2
                    SECONDS     MINUTES      HOURS       DAYS        YEARS
                    -----------------------------------------------------------
   TIME STEP LENGTH  86400.      1440.0      24.000      1.0000     2.73785E-03
 STRESS PERIOD TIME 5.01120E+06  83520.      1392.0      58.000     0.15880    
         TOTAL TIME 5.09760E+06  84960.      1416.0      59.000     0.16153    
1

 SOLVING FOR HEAD 

    ------------------------------------------------
       NWT REQUIRED            3 OUTER ITERATIONS 
       AND A TOTAL OF          3 INNER ITERATIONS.
    ------------------------------------------------

 OUTPUT CONTROL FOR STRESS PERIOD    2   TIME STEP   59
    SAVE HEAD FOR ALL LAYERS
    SAVE DRAWDOWN FOR ALL LAYERS
    SAVE BUDGET
    PRINT HEAD FOR ALL LAYERS
    PRINT BUDGET
1
              HEAD IN LAYER   1 AT END OF TIME STEP  59 IN STRESS PERIOD    2
  ---------------------------------------------------------------------------

            1           2           3           4           5           6           7           8           9          10
           11          12          13          14          15          16          17          18          19          20
 ........................................................................................................................
   1    0.000       0.000       0.000       0.000       0.000       10.55       10.40       10.84       11.52       11.45    
        10.21       7.338       2.235     -0.2053       5.862       21.59       31.94       37.48       0.000       0.000    
   2    0.000       0.000       0.000       0.000       8.351       7.932       7.138       7.827       9.320       9.601    
        8.733       6.556       2.592     -0.2393       8.438       23.35       33.64       39.54       0.000       0.000    
   3    0.000       0.000       0.000       6.320       5.998       4.083       3.249       3.831       5.255       5.805    
        5.454       4.410       2.808     -0.3741       14.19       26.12       37.08       43.80       0.000       0.000    
   4    0.000       0.000       3.609       3.925       2.754     -0.3495     -0.1213     -0.1726     -0.3494     -0.3037    
      -0.3055     -0.2772       1.393     -0.3831       19.12       32.39       42.13       50.76       0.000       0.000    
   5    0.000       0.000      0.6766      3.7037E-02 -0.5351     -3.2295E-02   5.003       8.325       11.47       12.15    
        9.997      8.4065E-02 -0.3318       1.256       26.15       39.68       53.39       64.46       75.38       0.000    
   6    0.000     -0.4601     -0.5175     -0.2830       2.463       10.80       16.09       19.74       22.36       23.90    
        23.65       21.59       23.01       28.20       40.99       53.44       67.80       72.88       77.84       0.000    
   7    0.000       9.812       11.40       13.25       16.37       21.38       25.78       29.18       31.21       34.20    
        35.81       37.07       40.06       45.61       54.89       65.14       74.18       80.23       0.000       0.000    
   8    0.000       16.03       20.34       22.97       25.99       29.79       33.56       36.91       39.76       42.68    
        45.28       48.06       51.96       57.56       65.03       73.20       80.69       88.78       0.000       0.000    
   9    0.000       0.000       28.09       29.76       32.33       35.53       38.94       42.24       45.38       48.49    
        51.64       55.13       59.48       65.00       71.69       79.02       86.47       94.44       102.3       107.1    
  10    0.000       0.000       31.84       33.19       35.50       38.44       41.67       44.94       48.17       51.41    
        54.80       58.58       63.10       68.58       74.98       81.97       89.19       96.43       102.8       106.5    

 HEAD WILL BE SAVED ON UNIT   51 AT END OF TIME STEP   59, STRESS PERIOD    2

 DRAWDOWN WILL BE SAVED ON UNIT   52 AT END OF TIME STEP   59, STRESS PERIOD    2
1
  VOLUMETRIC BUDGET FOR ENTIRE MODEL AT END OF TIME STEP   59, STRESS PERIOD   2
  ------------------------------------------------------------------------------

     CUMULATIVE VOLUMES      L**3       RATES FOR THIS TIME STEP      L**3/T
     ------------------                 ------------------------

           IN:                                      IN:
           ---                                      ---
             STORAGE =      226958.7344               STORAGE =        2662.6113
       CONSTANT HEAD =           0.0000         CONSTANT HEAD =           0.0000
               WELLS =           0.0000                 WELLS =           0.0000
       RIVER LEAKAGE =           0.0000         RIVER LEAKAGE =           0.0000
            RECHARGE =     1988369.1250              RECHARGE =       33296.1602

            TOTAL IN =     2215327.7500              TOTAL IN =       35958.7734

          OUT:                                     OUT:
          ----                                     ----
             STORAGE =      472281.9062               STORAGE =        7854.2363
       CONSTANT HEAD =           0.0000         CONSTANT HEAD =           0.0000
               WELLS =       30566.9297                 WELLS =         509.4487
       RIVER LEAKAGE =     1712540.5000         RIVER LEAKAGE =       27596.3770
            RECHARGE =           0.0000              RECHARGE =           0.0000

           TOTAL OUT =     2215389.2500             TOTAL OUT =       35960.0625

            IN - OUT =         -61.5000              IN - OUT =          -1.2891

 PERCENT DISCREPANCY =          -0.00     PERCENT DISCREPANCY =          -0.00






         TIME SUMMARY AT END OF TIME STEP   59 IN STRESS PERIOD    2
                    SECONDS     MINUTES      HOURS       DAYS        YEARS
                    -----------------------------------------------------------
   TIME STEP LENGTH  86400.      1440.0      24.000      1.0000     2.73785E-03
 STRESS PERIOD TIME 5.09760E+06  84960.      1416.0      59.000     0.16153    
         TOTAL TIME 5.18400E+06  86400.      1440.0      60.000     0.16427    
1

 SOLVING FOR HEAD 

    ------------------------------------------------
       NWT REQUIRED            3 OUTER ITERATIONS 
       AND A TOTAL OF          3 INNER ITERATIONS.
    ------------------------------------------------

 OUTPUT CONTROL FOR STRESS PERIOD    2   TIME STEP   60
    SAVE HEAD FOR ALL LAYERS
    SAVE DRAWDOWN FOR ALL LAYERS
    SAVE BUDGET
    PRINT HEAD FOR ALL LAYERS
    PRINT BUDGET
1
              HEAD IN LAYER   1 AT END OF TIME STEP  60 IN STRESS PERIOD    2
  ---------------------------------------------------------------------------

            1           2           3           4           5           6           7           8           9          10
           11          12          13          14          15          16          17          18          19          20
 ........................................................................................................................
   1    0.000       0.000       0.000       0.000       0.000       10.55       10.40       10.84       11.52       11.46    
        10.21       7.340       2.236     -0.2057       5.863       21.59       31.94       37.48       0.000       0.000    
   2    0.000       0.000       0.000       0.000       8.352       7.934       7.140       7.828       9.322       9.603    
        8.734       6.558       2.593     -0.2397       8.439       23.35       33.64       39.54       0.000       0.000    
   3    0.000       0.000       0.000       6.321       6.000       4.084       3.250       3.832       5.257       5.807    
        5.456       4.411       2.809     -0.3747       14.20       26.12       37.08       43.80       0.000       0.000    
   4    0.000       0.000       3.611       3.927       2.755     -0.3500     -0.1216     -0.1731     -0.3500     -0.3042    
      -0.3060     -0.2774       1.394     -0.3837       19.13       32.39       42.13       50.76       0.000       0.000    
   5    0.000       0.000      0.6772      3.7026E-02 -0.5357     -3.2600E-02   5.004       8.326       11.48       12.15    
        9.998      8.3923E-02 -0.3325       1.256       26.15       39.68       53.39       64.46       75.39       0.000    
   6    0.000     -0.4607     -0.5182     -0.2835       2.463       10.80       16.09       19.74       22.36       23.91    
        23.65       21.60       23.01       28.20       40.99       53.44       67.80       72.89       77.84       0.000    
   7    0.000       9.814       11.40       13.25       16.37       21.38       25.78       29.18       31.21       34.20    
        35.82       37.07       40.06       45.61       54.89       65.14       74.18       80.23       0.000       0.000    
   8    0.000       16.03       20.34       22.97       25.99       29.79       33.56       36.91       39.76       42.68    
        45.28       48.06       51.96       57.56       65.03       73.20       80.69       88.78       0.000       0.000    
   9    0.000       0.000       28.09       29.76       32.33       35.53       38.94       42.24       45.38       48.50    
        51.64       55.13       59.48       65.00       71.69       79.02       86.47       94.44       102.3       107.1    
  10    0.000       0.000       31.84       33.19       35.50       38.44       41.67       44.94       48.17       51.41    
        54.80       58.58       63.10       68.58       74.98       81.97       89.19       96.43       102.8       106.5    

 HEAD WILL BE SAVED ON UNIT   51 AT END OF TIME STEP   60, STRESS PERIOD    2

 DRAWDOWN WILL BE SAVED ON UNIT   52 AT END OF TIME STEP   60, STRESS PERIOD    2
1
  VOLUMETRIC BUDGET FOR ENTIRE MODEL AT END OF TIME STEP   60, STRESS PERIOD   2
  ------------------------------------------------------------------------------

     CUMULATIVE VOLUMES      L**3       RATES FOR THIS TIME STEP      L**3/T
     ------------------                 ------------------------

           IN:                                      IN:
           ---                                      ---
             STORAGE =      229590.7500               STORAGE =        2632.0222
       CONSTANT HEAD =           0.0000         CONSTANT HEAD =           0.0000
               WELLS =           0.0000                 WELLS =           0.0000
       RIVER LEAKAGE =           0.0000         RIVER LEAKAGE =           0.0000
            RECHARGE =     2021665.2500              RECHARGE =       33296.1602

            TOTAL IN =     2251256.0000              TOTAL IN =       35928.1836

          OUT:                                     OUT:
          ----                                     ----
             STORAGE =      480131.6250               STORAGE =        7849.7158
       CONSTANT HEAD =           0.0000         CONSTANT HEAD =           0.0000
               WELLS =       31076.3789                 WELLS =         509.4487
       RIVER LEAKAGE =     1740110.8750         RIVER LEAKAGE =       27570.3145
            RECHARGE =           0.0000              RECHARGE =           0.0000

           TOTAL OUT =     2251319.0000             TOTAL OUT =       35929.4766

            IN - OUT =         -63.0000              IN - OUT =          -1.2930

 PERCENT DISCREPANCY =          -0.00     PERCENT DISCREPANCY =          -0.00






         TIME SUMMARY AT END OF TIME STEP   60 IN STRESS PERIOD    2
                    SECONDS     MINUTES      HOURS       DAYS        YEARS
                    -----------------------------------------------------------
   TIME STEP LENGTH  86400.      1440.0      24.000      1.0000     2.73785E-03
 STRESS PERIOD TIME 5.18400E+06  86400.      1440.0      60.000     0.16427    
         TOTAL TIME 5.27040E+06  87840.      1464.0      61.000     0.16701    
1

 SOLVING FOR HEAD 

    ------------------------------------------------
       NWT REQUIRED            3 OUTER ITERATIONS 
       AND A TOTAL OF          3 INNER ITERATIONS.
    ------------------------------------------------

 OUTPUT CONTROL FOR STRESS PERIOD    2   TIME STEP   61
    SAVE HEAD FOR ALL LAYERS
    SAVE DRAWDOWN FOR ALL LAYERS
    SAVE BUDGET
    PRINT HEAD FOR ALL LAYERS
    PRINT BUDGET
1
              HEAD IN LAYER   1 AT END OF TIME STEP  61 IN STRESS PERIOD    2
  ---------------------------------------------------------------------------

            1           2           3           4           5           6           7           8           9          10
           11          12          13          14          15          16          17          18          19          20
 ........................................................................................................................
   1    0.000       0.000       0.000       0.000       0.000       10.55       10.40       10.84       11.52       11.46    
        10.21       7.341       2.238     -0.2060       5.864       21.60       31.95       37.48       0.000       0.000    
   2    0.000       0.000       0.000       0.000       8.354       7.935       7.141       7.830       9.324       9.604    
        8.736       6.559       2.595     -0.2402       8.441       23.35       33.64       39.54       0.000       0.000    
   3    0.000       0.000       0.000       6.323       6.001       4.086       3.251       3.834       5.258       5.808    
        5.457       4.412       2.811     -0.3753       14.20       26.12       37.08       43.80       0.000       0.000    
   4    0.000       0.000       3.612       3.928       2.756     -0.3504     -0.1220     -0.1735     -0.3505     -0.3048    
      -0.3065     -0.2777       1.395     -0.3844       19.13       32.39       42.13       50.76       0.000       0.000    
   5    0.000       0.000      0.6777      3.7016E-02 -0.5363     -3.2903E-02   5.006       8.328       11.48       12.15    
        10.00      8.3791E-02 -0.3331       1.255       26.15       39.69       53.40       64.46       75.39       0.000    
   6    0.000     -0.4613     -0.5188     -0.2841       2.463       10.80       16.09       19.75       22.36       23.91    
        23.65       21.60       23.01       28.20       41.00       53.45       67.80       72.89       77.84       0.000    
   7    0.000       9.815       11.40       13.25       16.37       21.38       25.79       29.18       31.21       34.20    
        35.82       37.07       40.06       45.61       54.89       65.14       74.18       80.23       0.000       0.000    
   8    0.000       16.03       20.34       22.97       25.99       29.79       33.56       36.91       39.77       42.68    
        45.29       48.06       51.96       57.56       65.03       73.20       80.70       88.79       0.000       0.000    
   9    0.000       0.000       28.09       29.76       32.33       35.54       38.94       42.25       45.38       48.50    
        51.64       55.13       59.48       65.00       71.69       79.02       86.47       94.44       102.3       107.2    
  10    0.000       0.000       31.84       33.20       35.50       38.44       41.67       44.94       48.17       51.42    
        54.80       58.58       63.11       68.58       74.98       81.97       89.20       96.43       102.8       106.5    

 HEAD WILL BE SAVED ON UNIT   51 AT END OF TIME STEP   61, STRESS PERIOD    2

 DRAWDOWN WILL BE SAVED ON UNIT   52 AT END OF TIME STEP   61, STRESS PERIOD    2
1
  VOLUMETRIC BUDGET FOR ENTIRE MODEL AT END OF TIME STEP   61, STRESS PERIOD   2
  ------------------------------------------------------------------------------

     CUMULATIVE VOLUMES      L**3       RATES FOR THIS TIME STEP      L**3/T
     ------------------                 ------------------------

           IN:                                      IN:
           ---                                      ---
             STORAGE =      232192.5625               STORAGE =        2601.8130
       CONSTANT HEAD =           0.0000         CONSTANT HEAD =           0.0000
               WELLS =           0.0000                 WELLS =           0.0000
       RIVER LEAKAGE =           0.0000         RIVER LEAKAGE =           0.0000
            RECHARGE =     2054961.3750              RECHARGE =       33296.1602

            TOTAL IN =     2287154.0000              TOTAL IN =       35897.9727

          OUT:                                     OUT:
          ----                                     ----
             STORAGE =      487976.8438               STORAGE =        7845.2217
       CONSTANT HEAD =           0.0000         CONSTANT HEAD =           0.0000
               WELLS =       31585.8281                 WELLS =         509.4487
       RIVER LEAKAGE =     1767655.5000         RIVER LEAKAGE =       27544.6055
            RECHARGE =           0.0000              RECHARGE =           0.0000

           TOTAL OUT =     2287218.2500             TOTAL OUT =       35899.2734

            IN - OUT =         -64.2500              IN - OUT =          -1.3008

 PERCENT DISCREPANCY =          -0.00     PERCENT DISCREPANCY =          -0.00






         TIME SUMMARY AT END OF TIME STEP   61 IN STRESS PERIOD    2
                    SECONDS     MINUTES      HOURS       DAYS        YEARS
                    -----------------------------------------------------------
   TIME STEP LENGTH  86400.      1440.0      24.000      1.0000     2.73785E-03
 STRESS PERIOD TIME 5.27040E+06  87840.      1464.0      61.000     0.16701    
         TOTAL TIME 5.35680E+06  89280.      1488.0      62.000     0.16975    
1

 SOLVING FOR HEAD 

    ------------------------------------------------
       NWT REQUIRED            3 OUTER ITERATIONS 
       AND A TOTAL OF          3 INNER ITERATIONS.
    ------------------------------------------------

 OUTPUT CONTROL FOR STRESS PERIOD    2   TIME STEP   62
    SAVE HEAD FOR ALL LAYERS
    SAVE DRAWDOWN FOR ALL LAYERS
    SAVE BUDGET
    PRINT HEAD FOR ALL LAYERS
    PRINT BUDGET
1
              HEAD IN LAYER   1 AT END OF TIME STEP  62 IN STRESS PERIOD    2
  ---------------------------------------------------------------------------

            1           2           3           4           5           6           7           8           9          10
           11          12          13          14          15          16          17          18          19          20
 ........................................................................................................................
   1    0.000       0.000       0.000       0.000       0.000       10.55       10.40       10.84       11.52       11.46    
        10.21       7.343       2.239     -0.2063       5.865       21.60       31.95       37.49       0.000       0.000    
   2    0.000       0.000       0.000       0.000       8.355       7.937       7.143       7.831       9.325       9.606    
        8.737       6.561       2.596     -0.2406       8.442       23.35       33.64       39.54       0.000       0.000    
   3    0.000       0.000       0.000       6.324       6.003       4.087       3.252       3.835       5.259       5.810    
        5.459       4.414       2.812     -0.3758       14.20       26.12       37.08       43.80       0.000       0.000    
   4    0.000       0.000       3.614       3.929       2.757     -0.3508     -0.1223     -0.1740     -0.3511     -0.3053    
      -0.3070     -0.2779       1.396     -0.3850       19.13       32.39       42.14       50.76       0.000       0.000    
   5    0.000       0.000      0.6783      3.7008E-02 -0.5368     -3.3203E-02   5.007       8.329       11.48       12.15    
        10.00      8.3668E-02 -0.3337       1.255       26.16       39.69       53.40       64.47       75.39       0.000    
   6    0.000     -0.4618     -0.5195     -0.2846       2.463       10.80       16.10       19.75       22.36       23.91    
        23.65       21.60       23.01       28.20       41.00       53.45       67.80       72.89       77.84       0.000    
   7    0.000       9.816       11.40       13.25       16.37       21.39       25.79       29.18       31.21       34.20    
        35.82       37.07       40.06       45.61       54.89       65.14       74.18       80.23       0.000       0.000    
   8    0.000       16.03       20.34       22.97       26.00       29.79       33.56       36.91       39.77       42.69    
        45.29       48.06       51.97       57.56       65.03       73.20       80.70       88.79       0.000       0.000    
   9    0.000       0.000       28.09       29.77       32.33       35.54       38.94       42.25       45.38       48.50    
        51.64       55.14       59.48       65.00       71.69       79.03       86.47       94.44       102.3       107.2    
  10    0.000       0.000       31.85       33.20       35.51       38.45       41.67       44.95       48.17       51.42    
        54.80       58.58       63.11       68.58       74.98       81.97       89.20       96.43       102.8       106.5    

 HEAD WILL BE SAVED ON UNIT   51 AT END OF TIME STEP   62, STRESS PERIOD    2

 DRAWDOWN WILL BE SAVED ON UNIT   52 AT END OF TIME STEP   62, STRESS PERIOD    2
1
  VOLUMETRIC BUDGET FOR ENTIRE MODEL AT END OF TIME STEP   62, STRESS PERIOD   2
  ------------------------------------------------------------------------------

     CUMULATIVE VOLUMES      L**3       RATES FOR THIS TIME STEP      L**3/T
     ------------------                 ------------------------

           IN:                                      IN:
           ---                                      ---
             STORAGE =      234764.5469               STORAGE =        2571.9783
       CONSTANT HEAD =           0.0000         CONSTANT HEAD =           0.0000
               WELLS =           0.0000                 WELLS =           0.0000
       RIVER LEAKAGE =           0.0000         RIVER LEAKAGE =           0.0000
            RECHARGE =     2088257.5000              RECHARGE =       33296.1602

            TOTAL IN =     2323022.0000              TOTAL IN =       35868.1367

          OUT:                                     OUT:
          ----                                     ----
             STORAGE =      495817.5938               STORAGE =        7840.7539
       CONSTANT HEAD =           0.0000         CONSTANT HEAD =           0.0000
               WELLS =       32095.2773                 WELLS =         509.4487
       RIVER LEAKAGE =     1795174.7500         RIVER LEAKAGE =       27519.2461
            RECHARGE =           0.0000              RECHARGE =           0.0000

           TOTAL OUT =     2323087.5000             TOTAL OUT =       35869.4492

            IN - OUT =         -65.5000              IN - OUT =          -1.3125

 PERCENT DISCREPANCY =          -0.00     PERCENT DISCREPANCY =          -0.00






         TIME SUMMARY AT END OF TIME STEP   62 IN STRESS PERIOD    2
                    SECONDS     MINUTES      HOURS       DAYS        YEARS
                    -----------------------------------------------------------
   TIME STEP LENGTH  86400.      1440.0      24.000      1.0000     2.73785E-03
 STRESS PERIOD TIME 5.35680E+06  89280.      1488.0      62.000     0.16975    
         TOTAL TIME 5.44320E+06  90720.      1512.0      63.000     0.17248    
1

 SOLVING FOR HEAD 

    ------------------------------------------------
       NWT REQUIRED            3 OUTER ITERATIONS 
       AND A TOTAL OF          3 INNER ITERATIONS.
    ------------------------------------------------

 OUTPUT CONTROL FOR STRESS PERIOD    2   TIME STEP   63
    SAVE HEAD FOR ALL LAYERS
    SAVE DRAWDOWN FOR ALL LAYERS
    SAVE BUDGET
    PRINT HEAD FOR ALL LAYERS
    PRINT BUDGET
1
              HEAD IN LAYER   1 AT END OF TIME STEP  63 IN STRESS PERIOD    2
  ---------------------------------------------------------------------------

            1           2           3           4           5           6           7           8           9          10
           11          12          13          14          15          16          17          18          19          20
 ........................................................................................................................
   1    0.000       0.000       0.000       0.000       0.000       10.55       10.41       10.84       11.53       11.46    
        10.21       7.344       2.240     -0.2066       5.866       21.60       31.95       37.49       0.000       0.000    
   2    0.000       0.000       0.000       0.000       8.357       7.938       7.144       7.833       9.327       9.607    
        8.739       6.562       2.597     -0.2410       8.443       23.35       33.64       39.55       0.000       0.000    
   3    0.000       0.000       0.000       6.326       6.004       4.088       3.253       3.836       5.261       5.811    
        5.460       4.415       2.814     -0.3764       14.20       26.12       37.09       43.81       0.000       0.000    
   4    0.000       0.000       3.615       3.931       2.758     -0.3513     -0.1227     -0.1744     -0.3516     -0.3058    
      -0.3075     -0.2782       1.397     -0.3856       19.13       32.40       42.14       50.77       0.000       0.000    
   5    0.000       0.000      0.6789      3.7001E-02 -0.5374     -3.3501E-02   5.008       8.330       11.48       12.15    
        10.00      8.3554E-02 -0.3343       1.255       26.16       39.69       53.40       64.47       75.39       0.000    
   6    0.000     -0.4624     -0.5201     -0.2851       2.464       10.80       16.10       19.75       22.36       23.91    
        23.66       21.60       23.01       28.20       41.00       53.45       67.81       72.89       77.84       0.000    
   7    0.000       9.818       11.40       13.25       16.38       21.39       25.79       29.18       31.21       34.21    
        35.82       37.07       40.07       45.61       54.89       65.14       74.19       80.24       0.000       0.000    
   8    0.000       16.03       20.34       22.98       26.00       29.79       33.56       36.92       39.77       42.69    
        45.29       48.07       51.97       57.56       65.03       73.20       80.70       88.79       0.000       0.000    
   9    0.000       0.000       28.09       29.77       32.34       35.54       38.94       42.25       45.38       48.50    
        51.64       55.14       59.48       65.00       71.69       79.03       86.47       94.44       102.3       107.2    
  10    0.000       0.000       31.85       33.20       35.51       38.45       41.68       44.95       48.17       51.42    
        54.80       58.59       63.11       68.59       74.98       81.97       89.20       96.44       102.8       106.5    

 HEAD WILL BE SAVED ON UNIT   51 AT END OF TIME STEP   63, STRESS PERIOD    2

 DRAWDOWN WILL BE SAVED ON UNIT   52 AT END OF TIME STEP   63, STRESS PERIOD    2
1
  VOLUMETRIC BUDGET FOR ENTIRE MODEL AT END OF TIME STEP   63, STRESS PERIOD   2
  ------------------------------------------------------------------------------

     CUMULATIVE VOLUMES      L**3       RATES FOR THIS TIME STEP      L**3/T
     ------------------                 ------------------------

           IN:                                      IN:
           ---                                      ---
             STORAGE =      237307.0625               STORAGE =        2542.5125
       CONSTANT HEAD =           0.0000         CONSTANT HEAD =           0.0000
               WELLS =           0.0000                 WELLS =           0.0000
       RIVER LEAKAGE =           0.0000         RIVER LEAKAGE =           0.0000
            RECHARGE =     2121553.7500              RECHARGE =       33296.1602

            TOTAL IN =     2358860.7500              TOTAL IN =       35838.6719

          OUT:                                     OUT:
          ----                                     ----
             STORAGE =      503653.9062               STORAGE =        7836.3115
       CONSTANT HEAD =           0.0000         CONSTANT HEAD =           0.0000
               WELLS =       32604.7266                 WELLS =         509.4487
       RIVER LEAKAGE =     1822669.0000         RIVER LEAKAGE =       27494.2285
            RECHARGE =           0.0000              RECHARGE =           0.0000

           TOTAL OUT =     2358927.5000             TOTAL OUT =       35839.9883

            IN - OUT =         -66.7500              IN - OUT =          -1.3164

 PERCENT DISCREPANCY =          -0.00     PERCENT DISCREPANCY =          -0.00






         TIME SUMMARY AT END OF TIME STEP   63 IN STRESS PERIOD    2
                    SECONDS     MINUTES      HOURS       DAYS        YEARS
                    -----------------------------------------------------------
   TIME STEP LENGTH  86400.      1440.0      24.000      1.0000     2.73785E-03
 STRESS PERIOD TIME 5.44320E+06  90720.      1512.0      63.000     0.17248    
         TOTAL TIME 5.52960E+06  92160.      1536.0      64.000     0.17522    
1

 SOLVING FOR HEAD 

    ------------------------------------------------
       NWT REQUIRED            3 OUTER ITERATIONS 
       AND A TOTAL OF          3 INNER ITERATIONS.
    ------------------------------------------------

 OUTPUT CONTROL FOR STRESS PERIOD    2   TIME STEP   64
    SAVE HEAD FOR ALL LAYERS
    SAVE DRAWDOWN FOR ALL LAYERS
    SAVE BUDGET
    PRINT HEAD FOR ALL LAYERS
    PRINT BUDGET
1
              HEAD IN LAYER   1 AT END OF TIME STEP  64 IN STRESS PERIOD    2
  ---------------------------------------------------------------------------

            1           2           3           4           5           6           7           8           9          10
           11          12          13          14          15          16          17          18          19          20
 ........................................................................................................................
   1    0.000       0.000       0.000       0.000       0.000       10.55       10.41       10.84       11.53       11.46    
        10.22       7.346       2.241     -0.2070       5.868       21.60       31.95       37.49       0.000       0.000    
   2    0.000       0.000       0.000       0.000       8.358       7.940       7.146       7.834       9.328       9.609    
        8.740       6.564       2.598     -0.2414       8.444       23.35       33.65       39.55       0.000       0.000    
   3    0.000       0.000       0.000       6.327       6.006       4.089       3.254       3.837       5.262       5.812    
        5.461       4.417       2.815     -0.3769       14.20       26.13       37.09       43.81       0.000       0.000    
   4    0.000       0.000       3.617       3.932       2.760     -0.3517     -0.1230     -0.1748     -0.3522     -0.3064    
      -0.3080     -0.2784       1.399     -0.3862       19.13       32.40       42.14       50.77       0.000       0.000    
   5    0.000       0.000      0.6795      3.6996E-02 -0.5380     -3.3798E-02   5.009       8.331       11.48       12.15    
        10.00      8.3448E-02 -0.3349       1.255       26.16       39.69       53.40       64.47       75.39       0.000    
   6    0.000     -0.4630     -0.5207     -0.2856       2.464       10.81       16.10       19.75       22.36       23.91    
        23.66       21.60       23.01       28.20       41.00       53.45       67.81       72.89       77.85       0.000    
   7    0.000       9.819       11.40       13.25       16.38       21.39       25.79       29.19       31.21       34.21    
        35.82       37.07       40.07       45.62       54.90       65.14       74.19       80.24       0.000       0.000    
   8    0.000       16.04       20.34       22.98       26.00       29.79       33.56       36.92       39.77       42.69    
        45.29       48.07       51.97       57.57       65.03       73.21       80.70       88.79       0.000       0.000    
   9    0.000       0.000       28.10       29.77       32.34       35.54       38.94       42.25       45.38       48.50    
        51.64       55.14       59.48       65.01       71.70       79.03       86.47       94.44       102.3       107.2    
  10    0.000       0.000       31.85       33.20       35.51       38.45       41.68       44.95       48.17       51.42    
        54.80       58.59       63.11       68.59       74.98       81.98       89.20       96.44       102.8       106.5    

 HEAD WILL BE SAVED ON UNIT   51 AT END OF TIME STEP   64, STRESS PERIOD    2

 DRAWDOWN WILL BE SAVED ON UNIT   52 AT END OF TIME STEP   64, STRESS PERIOD    2
1
  VOLUMETRIC BUDGET FOR ENTIRE MODEL AT END OF TIME STEP   64, STRESS PERIOD   2
  ------------------------------------------------------------------------------

     CUMULATIVE VOLUMES      L**3       RATES FOR THIS TIME STEP      L**3/T
     ------------------                 ------------------------

           IN:                                      IN:
           ---                                      ---
             STORAGE =      239820.4688               STORAGE =        2513.4092
       CONSTANT HEAD =           0.0000         CONSTANT HEAD =           0.0000
               WELLS =           0.0000                 WELLS =           0.0000
       RIVER LEAKAGE =           0.0000         RIVER LEAKAGE =           0.0000
            RECHARGE =     2154850.0000              RECHARGE =       33296.1602

            TOTAL IN =     2394670.5000              TOTAL IN =       35809.5703

          OUT:                                     OUT:
          ----                                     ----
             STORAGE =      511485.8125               STORAGE =        7831.8940
       CONSTANT HEAD =           0.0000         CONSTANT HEAD =           0.0000
               WELLS =       33114.1758                 WELLS =         509.4487
       RIVER LEAKAGE =     1850138.5000         RIVER LEAKAGE =       27469.5488
            RECHARGE =           0.0000              RECHARGE =           0.0000

           TOTAL OUT =     2394738.5000             TOTAL OUT =       35810.8906

            IN - OUT =         -68.0000              IN - OUT =          -1.3203

 PERCENT DISCREPANCY =          -0.00     PERCENT DISCREPANCY =          -0.00






         TIME SUMMARY AT END OF TIME STEP   64 IN STRESS PERIOD    2
                    SECONDS     MINUTES      HOURS       DAYS        YEARS
                    -----------------------------------------------------------
   TIME STEP LENGTH  86400.      1440.0      24.000      1.0000     2.73785E-03
 STRESS PERIOD TIME 5.52960E+06  92160.      1536.0      64.000     0.17522    
         TOTAL TIME 5.61600E+06  93600.      1560.0      65.000     0.17796    
1

 SOLVING FOR HEAD 

    ------------------------------------------------
       NWT REQUIRED            3 OUTER ITERATIONS 
       AND A TOTAL OF          3 INNER ITERATIONS.
    ------------------------------------------------

 OUTPUT CONTROL FOR STRESS PERIOD    2   TIME STEP   65
    SAVE HEAD FOR ALL LAYERS
    SAVE DRAWDOWN FOR ALL LAYERS
    SAVE BUDGET
    PRINT HEAD FOR ALL LAYERS
    PRINT BUDGET
1
              HEAD IN LAYER   1 AT END OF TIME STEP  65 IN STRESS PERIOD    2
  ---------------------------------------------------------------------------

            1           2           3           4           5           6           7           8           9          10
           11          12          13          14          15          16          17          18          19          20
 ........................................................................................................................
   1    0.000       0.000       0.000       0.000       0.000       10.55       10.41       10.85       11.53       11.46    
        10.22       7.347       2.242     -0.2073       5.869       21.60       31.95       37.49       0.000       0.000    
   2    0.000       0.000       0.000       0.000       8.360       7.941       7.147       7.836       9.330       9.610    
        8.742       6.565       2.599     -0.2418       8.445       23.36       33.65       39.55       0.000       0.000    
   3    0.000       0.000       0.000       6.329       6.007       4.091       3.255       3.838       5.264       5.814    
        5.463       4.418       2.816     -0.3774       14.20       26.13       37.09       43.81       0.000       0.000    
   4    0.000       0.000       3.618       3.934       2.761     -0.3521     -0.1233     -0.1752     -0.3527     -0.3069    
      -0.3084     -0.2787       1.400     -0.3868       19.13       32.40       42.14       50.77       0.000       0.000    
   5    0.000       0.000      0.6801      3.6992E-02 -0.5385     -3.4092E-02   5.010       8.333       11.48       12.16    
        10.00      8.3349E-02 -0.3355       1.255       26.16       39.69       53.40       64.47       75.39       0.000    
   6    0.000     -0.4636     -0.5213     -0.2861       2.464       10.81       16.10       19.75       22.36       23.91    
        23.66       21.60       23.02       28.20       41.00       53.45       67.81       72.89       77.85       0.000    
   7    0.000       9.820       11.40       13.25       16.38       21.39       25.79       29.19       31.22       34.21    
        35.82       37.07       40.07       45.62       54.90       65.14       74.19       80.24       0.000       0.000    
   8    0.000       16.04       20.35       22.98       26.00       29.80       33.57       36.92       39.77       42.69    
        45.29       48.07       51.97       57.57       65.04       73.21       80.70       88.79       0.000       0.000    
   9    0.000       0.000       28.10       29.77       32.34       35.54       38.94       42.25       45.38       48.50    
        51.65       55.14       59.49       65.01       71.70       79.03       86.48       94.44       102.3       107.2    
  10    0.000       0.000       31.85       33.20       35.51       38.45       41.68       44.95       48.18       51.42    
        54.80       58.59       63.11       68.59       74.98       81.98       89.20       96.44       102.8       106.5    

 HEAD WILL BE SAVED ON UNIT   51 AT END OF TIME STEP   65, STRESS PERIOD    2

 DRAWDOWN WILL BE SAVED ON UNIT   52 AT END OF TIME STEP   65, STRESS PERIOD    2
1
  VOLUMETRIC BUDGET FOR ENTIRE MODEL AT END OF TIME STEP   65, STRESS PERIOD   2
  ------------------------------------------------------------------------------

     CUMULATIVE VOLUMES      L**3       RATES FOR THIS TIME STEP      L**3/T
     ------------------                 ------------------------

           IN:                                      IN:
           ---                                      ---
             STORAGE =      242305.1250               STORAGE =        2484.6631
       CONSTANT HEAD =           0.0000         CONSTANT HEAD =           0.0000
               WELLS =           0.0000                 WELLS =           0.0000
       RIVER LEAKAGE =           0.0000         RIVER LEAKAGE =           0.0000
            RECHARGE =     2188146.2500              RECHARGE =       33296.1602

            TOTAL IN =     2430451.5000              TOTAL IN =       35780.8242

          OUT:                                     OUT:
          ----                                     ----
             STORAGE =      519313.3125               STORAGE =        7827.5024
       CONSTANT HEAD =           0.0000         CONSTANT HEAD =           0.0000
               WELLS =       33623.6250                 WELLS =         509.4487
       RIVER LEAKAGE =     1877583.7500         RIVER LEAKAGE =       27445.2012
            RECHARGE =           0.0000              RECHARGE =           0.0000

           TOTAL OUT =     2430520.7500             TOTAL OUT =       35782.1523

            IN - OUT =         -69.2500              IN - OUT =          -1.3281

 PERCENT DISCREPANCY =          -0.00     PERCENT DISCREPANCY =          -0.00






         TIME SUMMARY AT END OF TIME STEP   65 IN STRESS PERIOD    2
                    SECONDS     MINUTES      HOURS       DAYS        YEARS
                    -----------------------------------------------------------
   TIME STEP LENGTH  86400.      1440.0      24.000      1.0000     2.73785E-03
 STRESS PERIOD TIME 5.61600E+06  93600.      1560.0      65.000     0.17796    
         TOTAL TIME 5.70240E+06  95040.      1584.0      66.000     0.18070    
1

 SOLVING FOR HEAD 

    ------------------------------------------------
       NWT REQUIRED            3 OUTER ITERATIONS 
       AND A TOTAL OF          3 INNER ITERATIONS.
    ------------------------------------------------

 OUTPUT CONTROL FOR STRESS PERIOD    2   TIME STEP   66
    SAVE HEAD FOR ALL LAYERS
    SAVE DRAWDOWN FOR ALL LAYERS
    SAVE BUDGET
    PRINT HEAD FOR ALL LAYERS
    PRINT BUDGET
1
              HEAD IN LAYER   1 AT END OF TIME STEP  66 IN STRESS PERIOD    2
  ---------------------------------------------------------------------------

            1           2           3           4           5           6           7           8           9          10
           11          12          13          14          15          16          17          18          19          20
 ........................................................................................................................
   1    0.000       0.000       0.000       0.000       0.000       10.56       10.41       10.85       11.53       11.46    
        10.22       7.349       2.243     -0.2076       5.870       21.60       31.95       37.49       0.000       0.000    
   2    0.000       0.000       0.000       0.000       8.361       7.943       7.149       7.838       9.331       9.612    
        8.743       6.567       2.600     -0.2422       8.447       23.36       33.65       39.55       0.000       0.000    
   3    0.000       0.000       0.000       6.331       6.009       4.092       3.256       3.839       5.265       5.815    
        5.464       4.419       2.818     -0.3780       14.20       26.13       37.09       43.81       0.000       0.000    
   4    0.000       0.000       3.619       3.935       2.762     -0.3526     -0.1237     -0.1757     -0.3532     -0.3074    
      -0.3089     -0.2789       1.401     -0.3873       19.13       32.40       42.14       50.77       0.000       0.000    
   5    0.000       0.000      0.6806      3.6989E-02 -0.5391     -3.4384E-02   5.011       8.334       11.48       12.16    
        10.01      8.3259E-02 -0.3361       1.254       26.16       39.69       53.40       64.47       75.40       0.000    
   6    0.000     -0.4641     -0.5219     -0.2866       2.465       10.81       16.10       19.75       22.37       23.91    
        23.66       21.60       23.02       28.20       41.00       53.45       67.81       72.89       77.85       0.000    
   7    0.000       9.822       11.40       13.26       16.38       21.39       25.79       29.19       31.22       34.21    
        35.82       37.08       40.07       45.62       54.90       65.15       74.19       80.24       0.000       0.000    
   8    0.000       16.04       20.35       22.98       26.00       29.80       33.57       36.92       39.77       42.69    
        45.29       48.07       51.97       57.57       65.04       73.21       80.70       88.79       0.000       0.000    
   9    0.000       0.000       28.10       29.77       32.34       35.54       38.95       42.25       45.39       48.51    
        51.65       55.14       59.49       65.01       71.70       79.03       86.48       94.45       102.3       107.2    
  10    0.000       0.000       31.85       33.20       35.51       38.45       41.68       44.95       48.18       51.42    
        54.81       58.59       63.11       68.59       74.99       81.98       89.20       96.44       102.8       106.5    

 HEAD WILL BE SAVED ON UNIT   51 AT END OF TIME STEP   66, STRESS PERIOD    2

 DRAWDOWN WILL BE SAVED ON UNIT   52 AT END OF TIME STEP   66, STRESS PERIOD    2
1
  VOLUMETRIC BUDGET FOR ENTIRE MODEL AT END OF TIME STEP   66, STRESS PERIOD   2
  ------------------------------------------------------------------------------

     CUMULATIVE VOLUMES      L**3       RATES FOR THIS TIME STEP      L**3/T
     ------------------                 ------------------------

           IN:                                      IN:
           ---                                      ---
             STORAGE =      244761.3906               STORAGE =        2456.2690
       CONSTANT HEAD =           0.0000         CONSTANT HEAD =           0.0000
               WELLS =           0.0000                 WELLS =           0.0000
       RIVER LEAKAGE =           0.0000         RIVER LEAKAGE =           0.0000
            RECHARGE =     2221442.5000              RECHARGE =       33296.1602

            TOTAL IN =     2466204.0000              TOTAL IN =       35752.4297

          OUT:                                     OUT:
          ----                                     ----
             STORAGE =      527136.4375               STORAGE =        7823.1348
       CONSTANT HEAD =           0.0000         CONSTANT HEAD =           0.0000
               WELLS =       34133.0742                 WELLS =         509.4487
       RIVER LEAKAGE =     1905004.8750         RIVER LEAKAGE =       27421.1797
            RECHARGE =           0.0000              RECHARGE =           0.0000

           TOTAL OUT =     2466274.5000             TOTAL OUT =       35753.7617

            IN - OUT =         -70.5000              IN - OUT =          -1.3320

 PERCENT DISCREPANCY =          -0.00     PERCENT DISCREPANCY =          -0.00






         TIME SUMMARY AT END OF TIME STEP   66 IN STRESS PERIOD    2
                    SECONDS     MINUTES      HOURS       DAYS        YEARS
                    -----------------------------------------------------------
   TIME STEP LENGTH  86400.      1440.0      24.000      1.0000     2.73785E-03
 STRESS PERIOD TIME 5.70240E+06  95040.      1584.0      66.000     0.18070    
         TOTAL TIME 5.78880E+06  96480.      1608.0      67.000     0.18344    
1

 SOLVING FOR HEAD 

    ------------------------------------------------
       NWT REQUIRED            3 OUTER ITERATIONS 
       AND A TOTAL OF          3 INNER ITERATIONS.
    ------------------------------------------------

 OUTPUT CONTROL FOR STRESS PERIOD    2   TIME STEP   67
    SAVE HEAD FOR ALL LAYERS
    SAVE DRAWDOWN FOR ALL LAYERS
    SAVE BUDGET
    PRINT HEAD FOR ALL LAYERS
    PRINT BUDGET
1
              HEAD IN LAYER   1 AT END OF TIME STEP  67 IN STRESS PERIOD    2
  ---------------------------------------------------------------------------

            1           2           3           4           5           6           7           8           9          10
           11          12          13          14          15          16          17          18          19          20
 ........................................................................................................................
   1    0.000       0.000       0.000       0.000       0.000       10.56       10.41       10.85       11.53       11.47    
        10.22       7.350       2.244     -0.2079       5.871       21.60       31.96       37.49       0.000       0.000    
   2    0.000       0.000       0.000       0.000       8.363       7.944       7.150       7.839       9.333       9.613    
        8.745       6.569       2.602     -0.2426       8.448       23.36       33.65       39.55       0.000       0.000    
   3    0.000       0.000       0.000       6.332       6.010       4.093       3.257       3.840       5.266       5.816    
        5.465       4.421       2.819     -0.3785       14.21       26.13       37.09       43.81       0.000       0.000    
   4    0.000       0.000       3.621       3.936       2.763     -0.3530     -0.1240     -0.1761     -0.3538     -0.3079    
      -0.3094     -0.2792       1.402     -0.3879       19.14       32.40       42.14       50.77       0.000       0.000    
   5    0.000       0.000      0.6812      3.6988E-02 -0.5396     -3.4674E-02   5.012       8.335       11.49       12.16    
        10.01      8.3175E-02 -0.3367       1.254       26.16       39.70       53.40       64.47       75.40       0.000    
   6    0.000     -0.4647     -0.5225     -0.2871       2.465       10.81       16.10       19.75       22.37       23.92    
        23.66       21.61       23.02       28.21       41.01       53.45       67.81       72.90       77.85       0.000    
   7    0.000       9.823       11.41       13.26       16.38       21.39       25.79       29.19       31.22       34.21    
        35.83       37.08       40.07       45.62       54.90       65.15       74.19       80.24       0.000       0.000    
   8    0.000       16.04       20.35       22.98       26.00       29.80       33.57       36.92       39.78       42.69    
        45.29       48.07       51.97       57.57       65.04       73.21       80.70       88.79       0.000       0.000    
   9    0.000       0.000       28.10       29.77       32.34       35.55       38.95       42.25       45.39       48.51    
        51.65       55.14       59.49       65.01       71.70       79.03       86.48       94.45       102.3       107.2    
  10    0.000       0.000       31.85       33.20       35.51       38.45       41.68       44.95       48.18       51.42    
        54.81       58.59       63.11       68.59       74.99       81.98       89.21       96.44       102.8       106.5    

 HEAD WILL BE SAVED ON UNIT   51 AT END OF TIME STEP   67, STRESS PERIOD    2

 DRAWDOWN WILL BE SAVED ON UNIT   52 AT END OF TIME STEP   67, STRESS PERIOD    2
1
  VOLUMETRIC BUDGET FOR ENTIRE MODEL AT END OF TIME STEP   67, STRESS PERIOD   2
  ------------------------------------------------------------------------------

     CUMULATIVE VOLUMES      L**3       RATES FOR THIS TIME STEP      L**3/T
     ------------------                 ------------------------

           IN:                                      IN:
           ---                                      ---
             STORAGE =      247189.6094               STORAGE =        2428.2217
       CONSTANT HEAD =           0.0000         CONSTANT HEAD =           0.0000
               WELLS =           0.0000                 WELLS =           0.0000
       RIVER LEAKAGE =           0.0000         RIVER LEAKAGE =           0.0000
            RECHARGE =     2254738.7500              RECHARGE =       33296.1602

            TOTAL IN =     2501928.2500              TOTAL IN =       35724.3828

          OUT:                                     OUT:
          ----                                     ----
             STORAGE =      534955.2500               STORAGE =        7818.7920
       CONSTANT HEAD =           0.0000         CONSTANT HEAD =           0.0000
               WELLS =       34642.5234                 WELLS =         509.4487
       RIVER LEAKAGE =     1932402.3750         RIVER LEAKAGE =       27397.4805
            RECHARGE =           0.0000              RECHARGE =           0.0000

           TOTAL OUT =     2502000.0000             TOTAL OUT =       35725.7188

            IN - OUT =         -71.7500              IN - OUT =          -1.3359

 PERCENT DISCREPANCY =          -0.00     PERCENT DISCREPANCY =          -0.00






         TIME SUMMARY AT END OF TIME STEP   67 IN STRESS PERIOD    2
                    SECONDS     MINUTES      HOURS       DAYS        YEARS
                    -----------------------------------------------------------
   TIME STEP LENGTH  86400.      1440.0      24.000      1.0000     2.73785E-03
 STRESS PERIOD TIME 5.78880E+06  96480.      1608.0      67.000     0.18344    
         TOTAL TIME 5.87520E+06  97920.      1632.0      68.000     0.18617    
1

 SOLVING FOR HEAD 

    ------------------------------------------------
       NWT REQUIRED            3 OUTER ITERATIONS 
       AND A TOTAL OF          3 INNER ITERATIONS.
    ------------------------------------------------

 OUTPUT CONTROL FOR STRESS PERIOD    2   TIME STEP   68
    SAVE HEAD FOR ALL LAYERS
    SAVE DRAWDOWN FOR ALL LAYERS
    SAVE BUDGET
    PRINT HEAD FOR ALL LAYERS
    PRINT BUDGET
1
              HEAD IN LAYER   1 AT END OF TIME STEP  68 IN STRESS PERIOD    2
  ---------------------------------------------------------------------------

            1           2           3           4           5           6           7           8           9          10
           11          12          13          14          15          16          17          18          19          20
 ........................................................................................................................
   1    0.000       0.000       0.000       0.000       0.000       10.56       10.41       10.85       11.53       11.47    
        10.22       7.352       2.245     -0.2082       5.872       21.61       31.96       37.50       0.000       0.000    
   2    0.000       0.000       0.000       0.000       8.364       7.946       7.152       7.841       9.334       9.615    
        8.746       6.570       2.603     -0.2430       8.449       23.36       33.65       39.55       0.000       0.000    
   3    0.000       0.000       0.000       6.334       6.012       4.094       3.258       3.841       5.268       5.818    
        5.467       4.422       2.820     -0.3790       14.21       26.13       37.09       43.81       0.000       0.000    
   4    0.000       0.000       3.622       3.938       2.764     -0.3534     -0.1243     -0.1765     -0.3543     -0.3084    
      -0.3099     -0.2794       1.403     -0.3885       19.14       32.40       42.14       50.77       0.000       0.000    
   5    0.000       0.000      0.6818      3.6988E-02 -0.5402     -3.4962E-02   5.013       8.336       11.49       12.16    
        10.01      8.3097E-02 -0.3372       1.254       26.16       39.70       53.41       64.47       75.40       0.000    
   6    0.000     -0.4652     -0.5230     -0.2875       2.465       10.81       16.11       19.76       22.37       23.92    
        23.66       21.61       23.02       28.21       41.01       53.46       67.81       72.90       77.85       0.000    
   7    0.000       9.824       11.41       13.26       16.38       21.40       25.80       29.19       31.22       34.21    
        35.83       37.08       40.07       45.62       54.90       65.15       74.19       80.24       0.000       0.000    
   8    0.000       16.04       20.35       22.98       26.01       29.80       33.57       36.92       39.78       42.70    
        45.30       48.07       51.98       57.57       65.04       73.21       80.71       88.80       0.000       0.000    
   9    0.000       0.000       28.10       29.77       32.34       35.55       38.95       42.26       45.39       48.51    
        51.65       55.15       59.49       65.01       71.70       79.04       86.48       94.45       102.3       107.2    
  10    0.000       0.000       31.86       33.21       35.51       38.46       41.68       44.96       48.18       51.43    
        54.81       58.59       63.12       68.59       74.99       81.98       89.21       96.44       102.8       106.5    

 HEAD WILL BE SAVED ON UNIT   51 AT END OF TIME STEP   68, STRESS PERIOD    2

 DRAWDOWN WILL BE SAVED ON UNIT   52 AT END OF TIME STEP   68, STRESS PERIOD    2
1
  VOLUMETRIC BUDGET FOR ENTIRE MODEL AT END OF TIME STEP   68, STRESS PERIOD   2
  ------------------------------------------------------------------------------

     CUMULATIVE VOLUMES      L**3       RATES FOR THIS TIME STEP      L**3/T
     ------------------                 ------------------------

           IN:                                      IN:
           ---                                      ---
             STORAGE =      249590.1406               STORAGE =        2400.5251
       CONSTANT HEAD =           0.0000         CONSTANT HEAD =           0.0000
               WELLS =           0.0000                 WELLS =           0.0000
       RIVER LEAKAGE =           0.0000         RIVER LEAKAGE =           0.0000
            RECHARGE =     2288035.0000              RECHARGE =       33296.1602

            TOTAL IN =     2537625.2500              TOTAL IN =       35696.6836

          OUT:                                     OUT:
          ----                                     ----
             STORAGE =      542769.7500               STORAGE =        7814.4829
       CONSTANT HEAD =           0.0000         CONSTANT HEAD =           0.0000
               WELLS =       35151.9727                 WELLS =         509.4487
       RIVER LEAKAGE =     1959776.5000         RIVER LEAKAGE =       27374.0996
            RECHARGE =           0.0000              RECHARGE =           0.0000

           TOTAL OUT =     2537698.2500             TOTAL OUT =       35698.0312

            IN - OUT =         -73.0000              IN - OUT =          -1.3477

 PERCENT DISCREPANCY =          -0.00     PERCENT DISCREPANCY =          -0.00






         TIME SUMMARY AT END OF TIME STEP   68 IN STRESS PERIOD    2
                    SECONDS     MINUTES      HOURS       DAYS        YEARS
                    -----------------------------------------------------------
   TIME STEP LENGTH  86400.      1440.0      24.000      1.0000     2.73785E-03
 STRESS PERIOD TIME 5.87520E+06  97920.      1632.0      68.000     0.18617    
         TOTAL TIME 5.96160E+06  99360.      1656.0      69.000     0.18891    
1

 SOLVING FOR HEAD 

    ------------------------------------------------
       NWT REQUIRED            3 OUTER ITERATIONS 
       AND A TOTAL OF          3 INNER ITERATIONS.
    ------------------------------------------------

 OUTPUT CONTROL FOR STRESS PERIOD    2   TIME STEP   69
    SAVE HEAD FOR ALL LAYERS
    SAVE DRAWDOWN FOR ALL LAYERS
    SAVE BUDGET
    PRINT HEAD FOR ALL LAYERS
    PRINT BUDGET
1
              HEAD IN LAYER   1 AT END OF TIME STEP  69 IN STRESS PERIOD    2
  ---------------------------------------------------------------------------

            1           2           3           4           5           6           7           8           9          10
           11          12          13          14          15          16          17          18          19          20
 ........................................................................................................................
   1    0.000       0.000       0.000       0.000       0.000       10.56       10.41       10.85       11.53       11.47    
        10.22       7.353       2.246     -0.2086       5.873       21.61       31.96       37.50       0.000       0.000    
   2    0.000       0.000       0.000       0.000       8.366       7.947       7.153       7.842       9.336       9.617    
        8.748       6.572       2.604     -0.2434       8.450       23.36       33.65       39.55       0.000       0.000    
   3    0.000       0.000       0.000       6.335       6.013       4.095       3.259       3.843       5.269       5.819    
        5.468       4.424       2.822     -0.3795       14.21       26.13       37.10       43.81       0.000       0.000    
   4    0.000       0.000       3.624       3.939       2.765     -0.3538     -0.1246     -0.1769     -0.3548     -0.3089    
      -0.3103     -0.2797       1.404     -0.3890       19.14       32.41       42.15       50.78       0.000       0.000    
   5    0.000       0.000      0.6823      3.6990E-02 -0.5407     -3.5248E-02   5.014       8.338       11.49       12.16    
        10.01      8.3026E-02 -0.3378       1.254       26.16       39.70       53.41       64.48       75.40       0.000    
   6    0.000     -0.4657     -0.5236     -0.2880       2.465       10.81       16.11       19.76       22.37       23.92    
        23.66       21.61       23.02       28.21       41.01       53.46       67.82       72.90       77.85       0.000    
   7    0.000       9.826       11.41       13.26       16.38       21.40       25.80       29.19       31.22       34.21    
        35.83       37.08       40.07       45.62       54.90       65.15       74.19       80.25       0.000       0.000    
   8    0.000       16.04       20.35       22.99       26.01       29.80       33.57       36.93       39.78       42.70    
        45.30       48.07       51.98       57.57       65.04       73.21       80.71       88.80       0.000       0.000    
   9    0.000       0.000       28.10       29.78       32.34       35.55       38.95       42.26       45.39       48.51    
        51.65       55.15       59.49       65.01       71.70       79.04       86.48       94.45       102.3       107.2    
  10    0.000       0.000       31.86       33.21       35.52       38.46       41.69       44.96       48.18       51.43    
        54.81       58.59       63.12       68.60       74.99       81.98       89.21       96.44       102.8       106.5    

 HEAD WILL BE SAVED ON UNIT   51 AT END OF TIME STEP   69, STRESS PERIOD    2

 DRAWDOWN WILL BE SAVED ON UNIT   52 AT END OF TIME STEP   69, STRESS PERIOD    2
1
  VOLUMETRIC BUDGET FOR ENTIRE MODEL AT END OF TIME STEP   69, STRESS PERIOD   2
  ------------------------------------------------------------------------------

     CUMULATIVE VOLUMES      L**3       RATES FOR THIS TIME STEP      L**3/T
     ------------------                 ------------------------

           IN:                                      IN:
           ---                                      ---
             STORAGE =      251963.3438               STORAGE =        2373.2063
       CONSTANT HEAD =           0.0000         CONSTANT HEAD =           0.0000
               WELLS =           0.0000                 WELLS =           0.0000
       RIVER LEAKAGE =           0.0000         RIVER LEAKAGE =           0.0000
            RECHARGE =     2321331.2500              RECHARGE =       33296.1602

            TOTAL IN =     2573294.5000              TOTAL IN =       35669.3672

          OUT:                                     OUT:
          ----                                     ----
             STORAGE =      550580.0000               STORAGE =        7810.2388
       CONSTANT HEAD =           0.0000         CONSTANT HEAD =           0.0000
               WELLS =       35661.4219                 WELLS =         509.4487
       RIVER LEAKAGE =     1987127.5000         RIVER LEAKAGE =       27351.0312
            RECHARGE =           0.0000              RECHARGE =           0.0000

           TOTAL OUT =     2573369.0000             TOTAL OUT =       35670.7188

            IN - OUT =         -74.5000              IN - OUT =          -1.3516

 PERCENT DISCREPANCY =          -0.00     PERCENT DISCREPANCY =          -0.00






         TIME SUMMARY AT END OF TIME STEP   69 IN STRESS PERIOD    2
                    SECONDS     MINUTES      HOURS       DAYS        YEARS
                    -----------------------------------------------------------
   TIME STEP LENGTH  86400.      1440.0      24.000      1.0000     2.73785E-03
 STRESS PERIOD TIME 5.96160E+06  99360.      1656.0      69.000     0.18891    
         TOTAL TIME 6.04800E+06 1.00800E+05  1680.0      70.000     0.19165    
1

 SOLVING FOR HEAD 

    ------------------------------------------------
       NWT REQUIRED            3 OUTER ITERATIONS 
       AND A TOTAL OF          3 INNER ITERATIONS.
    ------------------------------------------------

 OUTPUT CONTROL FOR STRESS PERIOD    2   TIME STEP   70
    SAVE HEAD FOR ALL LAYERS
    SAVE DRAWDOWN FOR ALL LAYERS
    SAVE BUDGET
    PRINT HEAD FOR ALL LAYERS
    PRINT BUDGET
1
              HEAD IN LAYER   1 AT END OF TIME STEP  70 IN STRESS PERIOD    2
  ---------------------------------------------------------------------------

            1           2           3           4           5           6           7           8           9          10
           11          12          13          14          15          16          17          18          19          20
 ........................................................................................................................
   1    0.000       0.000       0.000       0.000       0.000       10.56       10.42       10.85       11.54       11.47    
        10.22       7.355       2.247     -0.2089       5.874       21.61       31.96       37.50       0.000       0.000    
   2    0.000       0.000       0.000       0.000       8.368       7.949       7.155       7.844       9.337       9.618    
        8.750       6.573       2.605     -0.2438       8.451       23.36       33.65       39.56       0.000       0.000    
   3    0.000       0.000       0.000       6.337       6.015       4.096       3.260       3.844       5.270       5.820    
        5.469       4.425       2.823     -0.3800       14.21       26.13       37.10       43.82       0.000       0.000    
   4    0.000       0.000       3.625       3.940       2.766     -0.3542     -0.1250     -0.1773     -0.3553     -0.3094    
      -0.3108     -0.2799       1.405     -0.3895       19.14       32.41       42.15       50.78       0.000       0.000    
   5    0.000       0.000      0.6829      3.6993E-02 -0.5412     -3.5532E-02   5.015       8.339       11.49       12.16    
        10.01      8.2961E-02 -0.3383       1.254       26.17       39.70       53.41       64.48       75.40       0.000    
   6    0.000     -0.4663     -0.5241     -0.2885       2.466       10.81       16.11       19.76       22.37       23.92    
        23.67       21.61       23.02       28.21       41.01       53.46       67.82       72.90       77.86       0.000    
   7    0.000       9.827       11.41       13.26       16.39       21.40       25.80       29.20       31.22       34.22    
        35.83       37.08       40.08       45.62       54.90       65.15       74.20       80.25       0.000       0.000    
   8    0.000       16.05       20.35       22.99       26.01       29.80       33.57       36.93       39.78       42.70    
        45.30       48.08       51.98       57.57       65.04       73.22       80.71       88.80       0.000       0.000    
   9    0.000       0.000       28.11       29.78       32.35       35.55       38.95       42.26       45.39       48.51    
        51.65       55.15       59.49       65.01       71.71       79.04       86.48       94.45       102.3       107.2    
  10    0.000       0.000       31.86       33.21       35.52       38.46       41.69       44.96       48.18       51.43    
        54.81       58.60       63.12       68.60       74.99       81.99       89.21       96.45       102.8       106.5    

 HEAD WILL BE SAVED ON UNIT   51 AT END OF TIME STEP   70, STRESS PERIOD    2

 DRAWDOWN WILL BE SAVED ON UNIT   52 AT END OF TIME STEP   70, STRESS PERIOD    2
1
  VOLUMETRIC BUDGET FOR ENTIRE MODEL AT END OF TIME STEP   70, STRESS PERIOD   2
  ------------------------------------------------------------------------------

     CUMULATIVE VOLUMES      L**3       RATES FOR THIS TIME STEP      L**3/T
     ------------------                 ------------------------

           IN:                                      IN:
           ---                                      ---
             STORAGE =      254309.5625               STORAGE =        2346.2178
       CONSTANT HEAD =           0.0000         CONSTANT HEAD =           0.0000
               WELLS =           0.0000                 WELLS =           0.0000
       RIVER LEAKAGE =           0.0000         RIVER LEAKAGE =           0.0000
            RECHARGE =     2354627.5000              RECHARGE =       33296.1602

            TOTAL IN =     2608937.0000              TOTAL IN =       35642.3789

          OUT:                                     OUT:
          ----                                     ----
             STORAGE =      558386.0000               STORAGE =        7806.0176
       CONSTANT HEAD =           0.0000         CONSTANT HEAD =           0.0000
               WELLS =       36170.8711                 WELLS =         509.4487
       RIVER LEAKAGE =     2014455.7500         RIVER LEAKAGE =       27328.2695
            RECHARGE =           0.0000              RECHARGE =           0.0000

           TOTAL OUT =     2609012.5000             TOTAL OUT =       35643.7344

            IN - OUT =         -75.5000              IN - OUT =          -1.3555

 PERCENT DISCREPANCY =          -0.00     PERCENT DISCREPANCY =          -0.00






         TIME SUMMARY AT END OF TIME STEP   70 IN STRESS PERIOD    2
                    SECONDS     MINUTES      HOURS       DAYS        YEARS
                    -----------------------------------------------------------
   TIME STEP LENGTH  86400.      1440.0      24.000      1.0000     2.73785E-03
 STRESS PERIOD TIME 6.04800E+06 1.00800E+05  1680.0      70.000     0.19165    
         TOTAL TIME 6.13440E+06 1.02240E+05  1704.0      71.000     0.19439    
1

 SOLVING FOR HEAD 

    ------------------------------------------------
       NWT REQUIRED            3 OUTER ITERATIONS 
       AND A TOTAL OF          3 INNER ITERATIONS.
    ------------------------------------------------

 OUTPUT CONTROL FOR STRESS PERIOD    2   TIME STEP   71
    SAVE HEAD FOR ALL LAYERS
    SAVE DRAWDOWN FOR ALL LAYERS
    SAVE BUDGET
    PRINT HEAD FOR ALL LAYERS
    PRINT BUDGET
1
              HEAD IN LAYER   1 AT END OF TIME STEP  71 IN STRESS PERIOD    2
  ---------------------------------------------------------------------------

            1           2           3           4           5           6           7           8           9          10
           11          12          13          14          15          16          17          18          19          20
 ........................................................................................................................
   1    0.000       0.000       0.000       0.000       0.000       10.56       10.42       10.85       11.54       11.47    
        10.23       7.356       2.248     -0.2092       5.875       21.61       31.96       37.50       0.000       0.000    
   2    0.000       0.000       0.000       0.000       8.369       7.950       7.156       7.845       9.339       9.620    
        8.751       6.575       2.606     -0.2442       8.452       23.37       33.66       39.56       0.000       0.000    
   3    0.000       0.000       0.000       6.338       6.016       4.098       3.261       3.845       5.272       5.822    
        5.471       4.426       2.824     -0.3805       14.21       26.14       37.10       43.82       0.000       0.000    
   4    0.000       0.000       3.627       3.942       2.767     -0.3546     -0.1253     -0.1777     -0.3558     -0.3098    
      -0.3112     -0.2801       1.406     -0.3901       19.14       32.41       42.15       50.78       0.000       0.000    
   5    0.000       0.000      0.6834      3.6997E-02 -0.5417     -3.5814E-02   5.016       8.340       11.49       12.16    
        10.01      8.2902E-02 -0.3389       1.254       26.17       39.70       53.41       64.48       75.40       0.000    
   6    0.000     -0.4668     -0.5247     -0.2889       2.466       10.82       16.11       19.76       22.37       23.92    
        23.67       21.61       23.02       28.21       41.01       53.46       67.82       72.90       77.86       0.000    
   7    0.000       9.828       11.41       13.26       16.39       21.40       25.80       29.20       31.23       34.22    
        35.83       37.08       40.08       45.63       54.91       65.15       74.20       80.25       0.000       0.000    
   8    0.000       16.05       20.35       22.99       26.01       29.81       33.58       36.93       39.78       42.70    
        45.30       48.08       51.98       57.58       65.04       73.22       80.71       88.80       0.000       0.000    
   9    0.000       0.000       28.11       29.78       32.35       35.55       38.95       42.26       45.39       48.51    
        51.66       55.15       59.49       65.02       71.71       79.04       86.48       94.45       102.3       107.2    
  10    0.000       0.000       31.86       33.21       35.52       38.46       41.69       44.96       48.19       51.43    
        54.81       58.60       63.12       68.60       74.99       81.99       89.21       96.45       102.8       106.5    

 HEAD WILL BE SAVED ON UNIT   51 AT END OF TIME STEP   71, STRESS PERIOD    2

 DRAWDOWN WILL BE SAVED ON UNIT   52 AT END OF TIME STEP   71, STRESS PERIOD    2
1
  VOLUMETRIC BUDGET FOR ENTIRE MODEL AT END OF TIME STEP   71, STRESS PERIOD   2
  ------------------------------------------------------------------------------

     CUMULATIVE VOLUMES      L**3       RATES FOR THIS TIME STEP      L**3/T
     ------------------                 ------------------------

           IN:                                      IN:
           ---                                      ---
             STORAGE =      256629.1250               STORAGE =        2319.5552
       CONSTANT HEAD =           0.0000         CONSTANT HEAD =           0.0000
               WELLS =           0.0000                 WELLS =           0.0000
       RIVER LEAKAGE =           0.0000         RIVER LEAKAGE =           0.0000
            RECHARGE =     2387923.7500              RECHARGE =       33296.1602

            TOTAL IN =     2644553.0000              TOTAL IN =       35615.7148

          OUT:                                     OUT:
          ----                                     ----
             STORAGE =      566187.8125               STORAGE =        7801.8188
       CONSTANT HEAD =           0.0000         CONSTANT HEAD =           0.0000
               WELLS =       36680.3203                 WELLS =         509.4487
       RIVER LEAKAGE =     2041761.5000         RIVER LEAKAGE =       27305.8105
            RECHARGE =           0.0000              RECHARGE =           0.0000

           TOTAL OUT =     2644629.5000             TOTAL OUT =       35617.0781

            IN - OUT =         -76.5000              IN - OUT =          -1.3633

 PERCENT DISCREPANCY =          -0.00     PERCENT DISCREPANCY =          -0.00






         TIME SUMMARY AT END OF TIME STEP   71 IN STRESS PERIOD    2
                    SECONDS     MINUTES      HOURS       DAYS        YEARS
                    -----------------------------------------------------------
   TIME STEP LENGTH  86400.      1440.0      24.000      1.0000     2.73785E-03
 STRESS PERIOD TIME 6.13440E+06 1.02240E+05  1704.0      71.000     0.19439    
         TOTAL TIME 6.22080E+06 1.03680E+05  1728.0      72.000     0.19713    
1

 SOLVING FOR HEAD 

    ------------------------------------------------
       NWT REQUIRED            3 OUTER ITERATIONS 
       AND A TOTAL OF          3 INNER ITERATIONS.
    ------------------------------------------------

 OUTPUT CONTROL FOR STRESS PERIOD    2   TIME STEP   72
    SAVE HEAD FOR ALL LAYERS
    SAVE DRAWDOWN FOR ALL LAYERS
    SAVE BUDGET
    PRINT HEAD FOR ALL LAYERS
    PRINT BUDGET
1
              HEAD IN LAYER   1 AT END OF TIME STEP  72 IN STRESS PERIOD    2
  ---------------------------------------------------------------------------

            1           2           3           4           5           6           7           8           9          10
           11          12          13          14          15          16          17          18          19          20
 ........................................................................................................................
   1    0.000       0.000       0.000       0.000       0.000       10.57       10.42       10.86       11.54       11.47    
        10.23       7.358       2.249     -0.2095       5.876       21.61       31.96       37.50       0.000       0.000    
   2    0.000       0.000       0.000       0.000       8.371       7.952       7.158       7.847       9.340       9.621    
        8.753       6.576       2.607     -0.2446       8.454       23.37       33.66       39.56       0.000       0.000    
   3    0.000       0.000       0.000       6.340       6.018       4.099       3.262       3.846       5.273       5.823    
        5.472       4.428       2.826     -0.3810       14.21       26.14       37.10       43.82       0.000       0.000    
   4    0.000       0.000       3.628       3.943       2.769     -0.3550     -0.1256     -0.1781     -0.3563     -0.3103    
      -0.3117     -0.2804       1.407     -0.3906       19.14       32.41       42.15       50.78       0.000       0.000    
   5    0.000       0.000      0.6840      3.7003E-02 -0.5422     -3.6094E-02   5.017       8.341       11.49       12.17    
        10.01      8.2848E-02 -0.3394       1.253       26.17       39.70       53.41       64.48       75.40       0.000    
   6    0.000     -0.4673     -0.5252     -0.2894       2.466       10.82       16.11       19.76       22.38       23.92    
        23.67       21.61       23.03       28.21       41.01       53.46       67.82       72.90       77.86       0.000    
   7    0.000       9.830       11.41       13.26       16.39       21.40       25.80       29.20       31.23       34.22    
        35.83       37.09       40.08       45.63       54.91       65.16       74.20       80.25       0.000       0.000    
   8    0.000       16.05       20.36       22.99       26.01       29.81       33.58       36.93       39.78       42.70    
        45.30       48.08       51.98       57.58       65.05       73.22       80.71       88.80       0.000       0.000    
   9    0.000       0.000       28.11       29.78       32.35       35.55       38.96       42.26       45.40       48.51    
        51.66       55.15       59.50       65.02       71.71       79.04       86.49       94.46       102.3       107.2    
  10    0.000       0.000       31.86       33.21       35.52       38.46       41.69       44.96       48.19       51.43    
        54.82       58.60       63.12       68.60       75.00       81.99       89.21       96.45       102.8       106.5    

 HEAD WILL BE SAVED ON UNIT   51 AT END OF TIME STEP   72, STRESS PERIOD    2

 DRAWDOWN WILL BE SAVED ON UNIT   52 AT END OF TIME STEP   72, STRESS PERIOD    2
1
  VOLUMETRIC BUDGET FOR ENTIRE MODEL AT END OF TIME STEP   72, STRESS PERIOD   2
  ------------------------------------------------------------------------------

     CUMULATIVE VOLUMES      L**3       RATES FOR THIS TIME STEP      L**3/T
     ------------------                 ------------------------

           IN:                                      IN:
           ---                                      ---
             STORAGE =      258922.3438               STORAGE =        2293.2139
       CONSTANT HEAD =           0.0000         CONSTANT HEAD =           0.0000
               WELLS =           0.0000                 WELLS =           0.0000
       RIVER LEAKAGE =           0.0000         RIVER LEAKAGE =           0.0000
            RECHARGE =     2421220.0000              RECHARGE =       33296.1602

            TOTAL IN =     2680142.2500              TOTAL IN =       35589.3750

          OUT:                                     OUT:
          ----                                     ----
             STORAGE =      573985.4375               STORAGE =        7797.6426
       CONSTANT HEAD =           0.0000         CONSTANT HEAD =           0.0000
               WELLS =       37189.7695                 WELLS =         509.4487
       RIVER LEAKAGE =     2069045.1250         RIVER LEAKAGE =       27283.6504
            RECHARGE =           0.0000              RECHARGE =           0.0000

           TOTAL OUT =     2680220.2500             TOTAL OUT =       35590.7422

            IN - OUT =         -78.0000              IN - OUT =          -1.3672

 PERCENT DISCREPANCY =          -0.00     PERCENT DISCREPANCY =          -0.00






         TIME SUMMARY AT END OF TIME STEP   72 IN STRESS PERIOD    2
                    SECONDS     MINUTES      HOURS       DAYS        YEARS
                    -----------------------------------------------------------
   TIME STEP LENGTH  86400.      1440.0      24.000      1.0000     2.73785E-03
 STRESS PERIOD TIME 6.22080E+06 1.03680E+05  1728.0      72.000     0.19713    
         TOTAL TIME 6.30720E+06 1.05120E+05  1752.0      73.000     0.19986    
1

 SOLVING FOR HEAD 

    ------------------------------------------------
       NWT REQUIRED            3 OUTER ITERATIONS 
       AND A TOTAL OF          3 INNER ITERATIONS.
    ------------------------------------------------

 OUTPUT CONTROL FOR STRESS PERIOD    2   TIME STEP   73
    SAVE HEAD FOR ALL LAYERS
    SAVE DRAWDOWN FOR ALL LAYERS
    SAVE BUDGET
    PRINT HEAD FOR ALL LAYERS
    PRINT BUDGET
1
              HEAD IN LAYER   1 AT END OF TIME STEP  73 IN STRESS PERIOD    2
  ---------------------------------------------------------------------------

            1           2           3           4           5           6           7           8           9          10
           11          12          13          14          15          16          17          18          19          20
 ........................................................................................................................
   1    0.000       0.000       0.000       0.000       0.000       10.57       10.42       10.86       11.54       11.48    
        10.23       7.359       2.250     -0.2098       5.877       21.61       31.96       37.50       0.000       0.000    
   2    0.000       0.000       0.000       0.000       8.372       7.953       7.159       7.848       9.342       9.623    
        8.754       6.578       2.609     -0.2450       8.455       23.37       33.66       39.56       0.000       0.000    
   3    0.000       0.000       0.000       6.341       6.019       4.100       3.263       3.847       5.274       5.824    
        5.473       4.429       2.827     -0.3815       14.21       26.14       37.10       43.82       0.000       0.000    
   4    0.000       0.000       3.630       3.945       2.770     -0.3554     -0.1259     -0.1785     -0.3568     -0.3108    
      -0.3121     -0.2806       1.408     -0.3911       19.14       32.41       42.15       50.78       0.000       0.000    
   5    0.000       0.000      0.6845      3.7010E-02 -0.5427     -3.6373E-02   5.018       8.343       11.49       12.17    
        10.01      8.2799E-02 -0.3399       1.253       26.17       39.70       53.41       64.48       75.41       0.000    
   6    0.000     -0.4678     -0.5257     -0.2899       2.466       10.82       16.11       19.76       22.38       23.93    
        23.67       21.61       23.03       28.21       41.01       53.46       67.82       72.91       77.86       0.000    
   7    0.000       9.831       11.41       13.27       16.39       21.40       25.80       29.20       31.23       34.22    
        35.84       37.09       40.08       45.63       54.91       65.16       74.20       80.25       0.000       0.000    
   8    0.000       16.05       20.36       22.99       26.01       29.81       33.58       36.93       39.78       42.70    
        45.30       48.08       51.98       57.58       65.05       73.22       80.71       88.80       0.000       0.000    
   9    0.000       0.000       28.11       29.78       32.35       35.55       38.96       42.26       45.40       48.52    
        51.66       55.15       59.50       65.02       71.71       79.04       86.49       94.46       102.3       107.2    
  10    0.000       0.000       31.86       33.21       35.52       38.46       41.69       44.96       48.19       51.43    
        54.82       58.60       63.12       68.60       75.00       81.99       89.21       96.45       102.8       106.5    

 HEAD WILL BE SAVED ON UNIT   51 AT END OF TIME STEP   73, STRESS PERIOD    2

 DRAWDOWN WILL BE SAVED ON UNIT   52 AT END OF TIME STEP   73, STRESS PERIOD    2
1
  VOLUMETRIC BUDGET FOR ENTIRE MODEL AT END OF TIME STEP   73, STRESS PERIOD   2
  ------------------------------------------------------------------------------

     CUMULATIVE VOLUMES      L**3       RATES FOR THIS TIME STEP      L**3/T
     ------------------                 ------------------------

           IN:                                      IN:
           ---                                      ---
             STORAGE =      261189.5312               STORAGE =        2267.1887
       CONSTANT HEAD =           0.0000         CONSTANT HEAD =           0.0000
               WELLS =           0.0000                 WELLS =           0.0000
       RIVER LEAKAGE =           0.0000         RIVER LEAKAGE =           0.0000
            RECHARGE =     2454516.2500              RECHARGE =       33296.1602

            TOTAL IN =     2715705.7500              TOTAL IN =       35563.3477

          OUT:                                     OUT:
          ----                                     ----
             STORAGE =      581778.9375               STORAGE =        7793.4888
       CONSTANT HEAD =           0.0000         CONSTANT HEAD =           0.0000
               WELLS =       37699.2188                 WELLS =         509.4487
       RIVER LEAKAGE =     2096306.8750         RIVER LEAKAGE =       27261.7852
            RECHARGE =           0.0000              RECHARGE =           0.0000

           TOTAL OUT =     2715785.0000             TOTAL OUT =       35564.7227

            IN - OUT =         -79.2500              IN - OUT =          -1.3750

 PERCENT DISCREPANCY =          -0.00     PERCENT DISCREPANCY =          -0.00






         TIME SUMMARY AT END OF TIME STEP   73 IN STRESS PERIOD    2
                    SECONDS     MINUTES      HOURS       DAYS        YEARS
                    -----------------------------------------------------------
   TIME STEP LENGTH  86400.      1440.0      24.000      1.0000     2.73785E-03
 STRESS PERIOD TIME 6.30720E+06 1.05120E+05  1752.0      73.000     0.19986    
         TOTAL TIME 6.39360E+06 1.06560E+05  1776.0      74.000     0.20260    
1

 SOLVING FOR HEAD 

    ------------------------------------------------
       NWT REQUIRED            3 OUTER ITERATIONS 
       AND A TOTAL OF          3 INNER ITERATIONS.
    ------------------------------------------------

 OUTPUT CONTROL FOR STRESS PERIOD    2   TIME STEP   74
    SAVE HEAD FOR ALL LAYERS
    SAVE DRAWDOWN FOR ALL LAYERS
    SAVE BUDGET
    PRINT HEAD FOR ALL LAYERS
    PRINT BUDGET
1
              HEAD IN LAYER   1 AT END OF TIME STEP  74 IN STRESS PERIOD    2
  ---------------------------------------------------------------------------

            1           2           3           4           5           6           7           8           9          10
           11          12          13          14          15          16          17          18          19          20
 ........................................................................................................................
   1    0.000       0.000       0.000       0.000       0.000       10.57       10.42       10.86       11.54       11.48    
        10.23       7.361       2.251     -0.2101       5.878       21.62       31.97       37.50       0.000       0.000    
   2    0.000       0.000       0.000       0.000       8.374       7.955       7.161       7.850       9.343       9.624    
        8.756       6.579       2.610     -0.2453       8.456       23.37       33.66       39.56       0.000       0.000    
   3    0.000       0.000       0.000       6.343       6.021       4.101       3.264       3.848       5.275       5.826    
        5.475       4.430       2.828     -0.3819       14.22       26.14       37.10       43.82       0.000       0.000    
   4    0.000       0.000       3.631       3.946       2.771     -0.3558     -0.1262     -0.1789     -0.3572     -0.3112    
      -0.3126     -0.2808       1.409     -0.3916       19.14       32.41       42.15       50.78       0.000       0.000    
   5    0.000       0.000      0.6851      3.7018E-02 -0.5432     -3.6649E-02   5.019       8.344       11.49       12.17    
        10.02      8.2754E-02 -0.3404       1.253       26.17       39.71       53.42       64.48       75.41       0.000    
   6    0.000     -0.4683     -0.5262     -0.2903       2.467       10.82       16.11       19.77       22.38       23.93    
        23.67       21.61       23.03       28.22       41.02       53.47       67.82       72.91       77.86       0.000    
   7    0.000       9.832       11.41       13.27       16.39       21.40       25.81       29.20       31.23       34.22    
        35.84       37.09       40.08       45.63       54.91       65.16       74.20       80.25       0.000       0.000    
   8    0.000       16.05       20.36       22.99       26.01       29.81       33.58       36.93       39.79       42.70    
        45.31       48.08       51.98       57.58       65.05       73.22       80.72       88.81       0.000       0.000    
   9    0.000       0.000       28.11       29.78       32.35       35.56       38.96       42.27       45.40       48.52    
        51.66       55.15       59.50       65.02       71.71       79.04       86.49       94.46       102.3       107.2    
  10    0.000       0.000       31.86       33.22       35.52       38.46       41.69       44.96       48.19       51.44    
        54.82       58.60       63.13       68.60       75.00       81.99       89.22       96.45       102.8       106.5    

 HEAD WILL BE SAVED ON UNIT   51 AT END OF TIME STEP   74, STRESS PERIOD    2

 DRAWDOWN WILL BE SAVED ON UNIT   52 AT END OF TIME STEP   74, STRESS PERIOD    2
1
  VOLUMETRIC BUDGET FOR ENTIRE MODEL AT END OF TIME STEP   74, STRESS PERIOD   2
  ------------------------------------------------------------------------------

     CUMULATIVE VOLUMES      L**3       RATES FOR THIS TIME STEP      L**3/T
     ------------------                 ------------------------

           IN:                                      IN:
           ---                                      ---
             STORAGE =      263431.0000               STORAGE =        2241.4751
       CONSTANT HEAD =           0.0000         CONSTANT HEAD =           0.0000
               WELLS =           0.0000                 WELLS =           0.0000
       RIVER LEAKAGE =           0.0000         RIVER LEAKAGE =           0.0000
            RECHARGE =     2487812.5000              RECHARGE =       33296.1602

            TOTAL IN =     2751243.5000              TOTAL IN =       35537.6367

          OUT:                                     OUT:
          ----                                     ----
             STORAGE =      589568.3125               STORAGE =        7789.3564
       CONSTANT HEAD =           0.0000         CONSTANT HEAD =           0.0000
               WELLS =       38208.6680                 WELLS =         509.4487
       RIVER LEAKAGE =     2123547.0000         RIVER LEAKAGE =       27240.2109
            RECHARGE =           0.0000              RECHARGE =           0.0000

           TOTAL OUT =     2751324.0000             TOTAL OUT =       35539.0156

            IN - OUT =         -80.5000              IN - OUT =          -1.3789

 PERCENT DISCREPANCY =          -0.00     PERCENT DISCREPANCY =          -0.00






         TIME SUMMARY AT END OF TIME STEP   74 IN STRESS PERIOD    2
                    SECONDS     MINUTES      HOURS       DAYS        YEARS
                    -----------------------------------------------------------
   TIME STEP LENGTH  86400.      1440.0      24.000      1.0000     2.73785E-03
 STRESS PERIOD TIME 6.39360E+06 1.06560E+05  1776.0      74.000     0.20260    
         TOTAL TIME 6.48000E+06 1.08000E+05  1800.0      75.000     0.20534    
1

 SOLVING FOR HEAD 

    ------------------------------------------------
       NWT REQUIRED            3 OUTER ITERATIONS 
       AND A TOTAL OF          3 INNER ITERATIONS.
    ------------------------------------------------

 OUTPUT CONTROL FOR STRESS PERIOD    2   TIME STEP   75
    SAVE HEAD FOR ALL LAYERS
    SAVE DRAWDOWN FOR ALL LAYERS
    SAVE BUDGET
    PRINT HEAD FOR ALL LAYERS
    PRINT BUDGET
1
              HEAD IN LAYER   1 AT END OF TIME STEP  75 IN STRESS PERIOD    2
  ---------------------------------------------------------------------------

            1           2           3           4           5           6           7           8           9          10
           11          12          13          14          15          16          17          18          19          20
 ........................................................................................................................
   1    0.000       0.000       0.000       0.000       0.000       10.57       10.42       10.86       11.54       11.48    
        10.23       7.362       2.252     -0.2104       5.879       21.62       31.97       37.51       0.000       0.000    
   2    0.000       0.000       0.000       0.000       8.375       7.956       7.162       7.851       9.345       9.626    
        8.757       6.581       2.611     -0.2457       8.457       23.37       33.66       39.56       0.000       0.000    
   3    0.000       0.000       0.000       6.344       6.022       4.102       3.265       3.849       5.277       5.827    
        5.476       4.432       2.830     -0.3824       14.22       26.14       37.10       43.82       0.000       0.000    
   4    0.000       0.000       3.633       3.947       2.772     -0.3562     -0.1265     -0.1793     -0.3577     -0.3117    
      -0.3130     -0.2811       1.410     -0.3921       19.15       32.41       42.16       50.78       0.000       0.000    
   5    0.000       0.000      0.6856      3.7027E-02 -0.5437     -3.6923E-02   5.020       8.345       11.50       12.17    
        10.02      8.2714E-02 -0.3409       1.253       26.17       39.71       53.42       64.49       75.41       0.000    
   6    0.000     -0.4688     -0.5267     -0.2908       2.467       10.82       16.12       19.77       22.38       23.93    
        23.67       21.62       23.03       28.22       41.02       53.47       67.82       72.91       77.86       0.000    
   7    0.000       9.834       11.42       13.27       16.39       21.41       25.81       29.20       31.23       34.22    
        35.84       37.09       40.08       45.63       54.91       65.16       74.20       80.25       0.000       0.000    
   8    0.000       16.05       20.36       22.99       26.02       29.81       33.58       36.93       39.79       42.71    
        45.31       48.08       51.99       57.58       65.05       73.22       80.72       88.81       0.000       0.000    
   9    0.000       0.000       28.11       29.79       32.35       35.56       38.96       42.27       45.40       48.52    
        51.66       55.16       59.50       65.02       71.71       79.05       86.49       94.46       102.3       107.2    
  10    0.000       0.000       31.87       33.22       35.53       38.47       41.69       44.97       48.19       51.44    
        54.82       58.60       63.13       68.60       75.00       81.99       89.22       96.45       102.8       106.5    

 HEAD WILL BE SAVED ON UNIT   51 AT END OF TIME STEP   75, STRESS PERIOD    2

 DRAWDOWN WILL BE SAVED ON UNIT   52 AT END OF TIME STEP   75, STRESS PERIOD    2
1
  VOLUMETRIC BUDGET FOR ENTIRE MODEL AT END OF TIME STEP   75, STRESS PERIOD   2
  ------------------------------------------------------------------------------

     CUMULATIVE VOLUMES      L**3       RATES FOR THIS TIME STEP      L**3/T
     ------------------                 ------------------------

           IN:                                      IN:
           ---                                      ---
             STORAGE =      265647.0625               STORAGE =        2216.0688
       CONSTANT HEAD =           0.0000         CONSTANT HEAD =           0.0000
               WELLS =           0.0000                 WELLS =           0.0000
       RIVER LEAKAGE =           0.0000         RIVER LEAKAGE =           0.0000
            RECHARGE =     2521108.7500              RECHARGE =       33296.1602

            TOTAL IN =     2786755.7500              TOTAL IN =       35512.2305

          OUT:                                     OUT:
          ----                                     ----
             STORAGE =      597353.5625               STORAGE =        7785.2456
       CONSTANT HEAD =           0.0000         CONSTANT HEAD =           0.0000
               WELLS =       38718.1172                 WELLS =         509.4487
       RIVER LEAKAGE =     2150766.0000         RIVER LEAKAGE =       27218.9199
            RECHARGE =           0.0000              RECHARGE =           0.0000

           TOTAL OUT =     2786837.7500             TOTAL OUT =       35513.6133

            IN - OUT =         -82.0000              IN - OUT =          -1.3828

 PERCENT DISCREPANCY =          -0.00     PERCENT DISCREPANCY =          -0.00






         TIME SUMMARY AT END OF TIME STEP   75 IN STRESS PERIOD    2
                    SECONDS     MINUTES      HOURS       DAYS        YEARS
                    -----------------------------------------------------------
   TIME STEP LENGTH  86400.      1440.0      24.000      1.0000     2.73785E-03
 STRESS PERIOD TIME 6.48000E+06 1.08000E+05  1800.0      75.000     0.20534    
         TOTAL TIME 6.56640E+06 1.09440E+05  1824.0      76.000     0.20808    
1

 SOLVING FOR HEAD 

    ------------------------------------------------
       NWT REQUIRED            3 OUTER ITERATIONS 
       AND A TOTAL OF          3 INNER ITERATIONS.
    ------------------------------------------------

 OUTPUT CONTROL FOR STRESS PERIOD    2   TIME STEP   76
    SAVE HEAD FOR ALL LAYERS
    SAVE DRAWDOWN FOR ALL LAYERS
    SAVE BUDGET
    PRINT HEAD FOR ALL LAYERS
    PRINT BUDGET
1
              HEAD IN LAYER   1 AT END OF TIME STEP  76 IN STRESS PERIOD    2
  ---------------------------------------------------------------------------

            1           2           3           4           5           6           7           8           9          10
           11          12          13          14          15          16          17          18          19          20
 ........................................................................................................................
   1    0.000       0.000       0.000       0.000       0.000       10.57       10.43       10.86       11.55       11.48    
        10.23       7.364       2.253     -0.2107       5.880       21.62       31.97       37.51       0.000       0.000    
   2    0.000       0.000       0.000       0.000       8.377       7.958       7.164       7.853       9.346       9.627    
        8.759       6.582       2.612     -0.2461       8.458       23.37       33.66       39.57       0.000       0.000    
   3    0.000       0.000       0.000       6.346       6.024       4.104       3.266       3.850       5.278       5.828    
        5.477       4.433       2.831     -0.3829       14.22       26.14       37.11       43.83       0.000       0.000    
   4    0.000       0.000       3.634       3.949       2.773     -0.3566     -0.1268     -0.1796     -0.3582     -0.3122    
      -0.3134     -0.2813       1.411     -0.3926       19.15       32.42       42.16       50.79       0.000       0.000    
   5    0.000       0.000      0.6861      3.7038E-02 -0.5442     -3.7195E-02   5.021       8.346       11.50       12.17    
        10.02      8.2679E-02 -0.3414       1.253       26.17       39.71       53.42       64.49       75.41       0.000    
   6    0.000     -0.4693     -0.5272     -0.2912       2.467       10.82       16.12       19.77       22.38       23.93    
        23.68       21.62       23.03       28.22       41.02       53.47       67.83       72.91       77.87       0.000    
   7    0.000       9.835       11.42       13.27       16.39       21.41       25.81       29.20       31.23       34.23    
        35.84       37.09       40.09       45.63       54.91       65.16       74.21       80.26       0.000       0.000    
   8    0.000       16.05       20.36       23.00       26.02       29.81       33.58       36.94       39.79       42.71    
        45.31       48.09       51.99       57.58       65.05       73.22       80.72       88.81       0.000       0.000    
   9    0.000       0.000       28.11       29.79       32.36       35.56       38.96       42.27       45.40       48.52    
        51.66       55.16       59.50       65.02       71.71       79.05       86.49       94.46       102.3       107.2    
  10    0.000       0.000       31.87       33.22       35.53       38.47       41.70       44.97       48.19       51.44    
        54.82       58.61       63.13       68.61       75.00       81.99       89.22       96.46       102.8       106.5    

 HEAD WILL BE SAVED ON UNIT   51 AT END OF TIME STEP   76, STRESS PERIOD    2

 DRAWDOWN WILL BE SAVED ON UNIT   52 AT END OF TIME STEP   76, STRESS PERIOD    2
1
  VOLUMETRIC BUDGET FOR ENTIRE MODEL AT END OF TIME STEP   76, STRESS PERIOD   2
  ------------------------------------------------------------------------------

     CUMULATIVE VOLUMES      L**3       RATES FOR THIS TIME STEP      L**3/T
     ------------------                 ------------------------

           IN:                                      IN:
           ---                                      ---
             STORAGE =      267838.0312               STORAGE =        2190.9656
       CONSTANT HEAD =           0.0000         CONSTANT HEAD =           0.0000
               WELLS =           0.0000                 WELLS =           0.0000
       RIVER LEAKAGE =           0.0000         RIVER LEAKAGE =           0.0000
            RECHARGE =     2554405.0000              RECHARGE =       33296.1602

            TOTAL IN =     2822243.0000              TOTAL IN =       35487.1250

          OUT:                                     OUT:
          ----                                     ----
             STORAGE =      605134.7500               STORAGE =        7781.1562
       CONSTANT HEAD =           0.0000         CONSTANT HEAD =           0.0000
               WELLS =       39227.5664                 WELLS =         509.4487
       RIVER LEAKAGE =     2177964.0000         RIVER LEAKAGE =       27197.9121
            RECHARGE =           0.0000              RECHARGE =           0.0000

           TOTAL OUT =     2822326.2500             TOTAL OUT =       35488.5156

            IN - OUT =         -83.2500              IN - OUT =          -1.3906

 PERCENT DISCREPANCY =          -0.00     PERCENT DISCREPANCY =          -0.00






         TIME SUMMARY AT END OF TIME STEP   76 IN STRESS PERIOD    2
                    SECONDS     MINUTES      HOURS       DAYS        YEARS
                    -----------------------------------------------------------
   TIME STEP LENGTH  86400.      1440.0      24.000      1.0000     2.73785E-03
 STRESS PERIOD TIME 6.56640E+06 1.09440E+05  1824.0      76.000     0.20808    
         TOTAL TIME 6.65280E+06 1.10880E+05  1848.0      77.000     0.21081    
1

 SOLVING FOR HEAD 

    ------------------------------------------------
       NWT REQUIRED            3 OUTER ITERATIONS 
       AND A TOTAL OF          3 INNER ITERATIONS.
    ------------------------------------------------

 OUTPUT CONTROL FOR STRESS PERIOD    2   TIME STEP   77
    SAVE HEAD FOR ALL LAYERS
    SAVE DRAWDOWN FOR ALL LAYERS
    SAVE BUDGET
    PRINT HEAD FOR ALL LAYERS
    PRINT BUDGET
1
              HEAD IN LAYER   1 AT END OF TIME STEP  77 IN STRESS PERIOD    2
  ---------------------------------------------------------------------------

            1           2           3           4           5           6           7           8           9          10
           11          12          13          14          15          16          17          18          19          20
 ........................................................................................................................
   1    0.000       0.000       0.000       0.000       0.000       10.57       10.43       10.86       11.55       11.48    
        10.24       7.366       2.254     -0.2110       5.881       21.62       31.97       37.51       0.000       0.000    
   2    0.000       0.000       0.000       0.000       8.378       7.959       7.165       7.854       9.348       9.629    
        8.760       6.584       2.613     -0.2465       8.459       23.37       33.67       39.57       0.000       0.000    
   3    0.000       0.000       0.000       6.347       6.025       4.105       3.266       3.851       5.279       5.830    
        5.479       4.435       2.832     -0.3833       14.22       26.15       37.11       43.83       0.000       0.000    
   4    0.000       0.000       3.635       3.950       2.774     -0.3570     -0.1271     -0.1800     -0.3586     -0.3126    
      -0.3138     -0.2815       1.412     -0.3931       19.15       32.42       42.16       50.79       0.000       0.000    
   5    0.000       0.000      0.6867      3.7050E-02 -0.5447     -3.7465E-02   5.022       8.347       11.50       12.17    
        10.02      8.2647E-02 -0.3419       1.253       26.18       39.71       53.42       64.49       75.41       0.000    
   6    0.000     -0.4698     -0.5277     -0.2916       2.467       10.82       16.12       19.77       22.38       23.93    
        23.68       21.62       23.03       28.22       41.02       53.47       67.83       72.91       77.87       0.000    
   7    0.000       9.836       11.42       13.27       16.40       21.41       25.81       29.21       31.23       34.23    
        35.84       37.09       40.09       45.64       54.92       65.16       74.21       80.26       0.000       0.000    
   8    0.000       16.06       20.36       23.00       26.02       29.81       33.58       36.94       39.79       42.71    
        45.31       48.09       51.99       57.59       65.05       73.23       80.72       88.81       0.000       0.000    
   9    0.000       0.000       28.12       29.79       32.36       35.56       38.96       42.27       45.40       48.52    
        51.66       55.16       59.50       65.03       71.72       79.05       86.49       94.46       102.3       107.2    
  10    0.000       0.000       31.87       33.22       35.53       38.47       41.70       44.97       48.19       51.44    
        54.82       58.61       63.13       68.61       75.00       82.00       89.22       96.46       102.8       106.5    

 HEAD WILL BE SAVED ON UNIT   51 AT END OF TIME STEP   77, STRESS PERIOD    2

 DRAWDOWN WILL BE SAVED ON UNIT   52 AT END OF TIME STEP   77, STRESS PERIOD    2
1
  VOLUMETRIC BUDGET FOR ENTIRE MODEL AT END OF TIME STEP   77, STRESS PERIOD   2
  ------------------------------------------------------------------------------

     CUMULATIVE VOLUMES      L**3       RATES FOR THIS TIME STEP      L**3/T
     ------------------                 ------------------------

           IN:                                      IN:
           ---                                      ---
             STORAGE =      270004.1875               STORAGE =        2166.1609
       CONSTANT HEAD =           0.0000         CONSTANT HEAD =           0.0000
               WELLS =           0.0000                 WELLS =           0.0000
       RIVER LEAKAGE =           0.0000         RIVER LEAKAGE =           0.0000
            RECHARGE =     2587701.2500              RECHARGE =       33296.1602

            TOTAL IN =     2857705.5000              TOTAL IN =       35462.3203

          OUT:                                     OUT:
          ----                                     ----
             STORAGE =      612911.8125               STORAGE =        7777.0879
       CONSTANT HEAD =           0.0000         CONSTANT HEAD =           0.0000
               WELLS =       39737.0156                 WELLS =         509.4487
       RIVER LEAKAGE =     2205141.2500         RIVER LEAKAGE =       27177.1797
            RECHARGE =           0.0000              RECHARGE =           0.0000

           TOTAL OUT =     2857790.0000             TOTAL OUT =       35463.7148

            IN - OUT =         -84.5000              IN - OUT =          -1.3945

 PERCENT DISCREPANCY =          -0.00     PERCENT DISCREPANCY =          -0.00






         TIME SUMMARY AT END OF TIME STEP   77 IN STRESS PERIOD    2
                    SECONDS     MINUTES      HOURS       DAYS        YEARS
                    -----------------------------------------------------------
   TIME STEP LENGTH  86400.      1440.0      24.000      1.0000     2.73785E-03
 STRESS PERIOD TIME 6.65280E+06 1.10880E+05  1848.0      77.000     0.21081    
         TOTAL TIME 6.73920E+06 1.12320E+05  1872.0      78.000     0.21355    
1

 SOLVING FOR HEAD 

    ------------------------------------------------
       NWT REQUIRED            3 OUTER ITERATIONS 
       AND A TOTAL OF          3 INNER ITERATIONS.
    ------------------------------------------------

 OUTPUT CONTROL FOR STRESS PERIOD    2   TIME STEP   78
    SAVE HEAD FOR ALL LAYERS
    SAVE DRAWDOWN FOR ALL LAYERS
    SAVE BUDGET
    PRINT HEAD FOR ALL LAYERS
    PRINT BUDGET
1
              HEAD IN LAYER   1 AT END OF TIME STEP  78 IN STRESS PERIOD    2
  ---------------------------------------------------------------------------

            1           2           3           4           5           6           7           8           9          10
           11          12          13          14          15          16          17          18          19          20
 ........................................................................................................................
   1    0.000       0.000       0.000       0.000       0.000       10.57       10.43       10.87       11.55       11.48    
        10.24       7.367       2.255     -0.2113       5.882       21.62       31.97       37.51       0.000       0.000    
   2    0.000       0.000       0.000       0.000       8.380       7.961       7.167       7.856       9.350       9.630    
        8.762       6.585       2.614     -0.2468       8.460       23.38       33.67       39.57       0.000       0.000    
   3    0.000       0.000       0.000       6.349       6.027       4.106       3.267       3.852       5.281       5.831    
        5.480       4.436       2.834     -0.3838       14.22       26.15       37.11       43.83       0.000       0.000    
   4    0.000       0.000       3.637       3.951       2.775     -0.3573     -0.1274     -0.1804     -0.3591     -0.3130    
      -0.3143     -0.2817       1.413     -0.3936       19.15       32.42       42.16       50.79       0.000       0.000    
   5    0.000       0.000      0.6872      3.7063E-02 -0.5451     -3.7734E-02   5.023       8.349       11.50       12.17    
        10.02      8.2620E-02 -0.3424       1.253       26.18       39.71       53.42       64.49       75.41       0.000    
   6    0.000     -0.4703     -0.5281     -0.2921       2.468       10.82       16.12       19.77       22.38       23.93    
        23.68       21.62       23.03       28.22       41.02       53.47       67.83       72.91       77.87       0.000    
   7    0.000       9.837       11.42       13.27       16.40       21.41       25.81       29.21       31.24       34.23    
        35.84       37.09       40.09       45.64       54.92       65.16       74.21       80.26       0.000       0.000    
   8    0.000       16.06       20.37       23.00       26.02       29.82       33.59       36.94       39.79       42.71    
        45.31       48.09       51.99       57.59       65.06       73.23       80.72       88.81       0.000       0.000    
   9    0.000       0.000       28.12       29.79       32.36       35.56       38.96       42.27       45.41       48.52    
        51.67       55.16       59.51       65.03       71.72       79.05       86.50       94.46       102.3       107.2    
  10    0.000       0.000       31.87       33.22       35.53       38.47       41.70       44.97       48.20       51.44    
        54.82       58.61       63.13       68.61       75.00       82.00       89.22       96.46       102.8       106.5    

 HEAD WILL BE SAVED ON UNIT   51 AT END OF TIME STEP   78, STRESS PERIOD    2

 DRAWDOWN WILL BE SAVED ON UNIT   52 AT END OF TIME STEP   78, STRESS PERIOD    2
1
  VOLUMETRIC BUDGET FOR ENTIRE MODEL AT END OF TIME STEP   78, STRESS PERIOD   2
  ------------------------------------------------------------------------------

     CUMULATIVE VOLUMES      L**3       RATES FOR THIS TIME STEP      L**3/T
     ------------------                 ------------------------

           IN:                                      IN:
           ---                                      ---
             STORAGE =      272145.8438               STORAGE =        2141.6504
       CONSTANT HEAD =           0.0000         CONSTANT HEAD =           0.0000
               WELLS =           0.0000                 WELLS =           0.0000
       RIVER LEAKAGE =           0.0000         RIVER LEAKAGE =           0.0000
            RECHARGE =     2620997.5000              RECHARGE =       33296.1602

            TOTAL IN =     2893143.2500              TOTAL IN =       35437.8125

          OUT:                                     OUT:
          ----                                     ----
             STORAGE =      620684.8750               STORAGE =        7773.0405
       CONSTANT HEAD =           0.0000         CONSTANT HEAD =           0.0000
               WELLS =       40246.4648                 WELLS =         509.4487
       RIVER LEAKAGE =     2232298.0000         RIVER LEAKAGE =       27156.7227
            RECHARGE =           0.0000              RECHARGE =           0.0000

           TOTAL OUT =     2893229.2500             TOTAL OUT =       35439.2109

            IN - OUT =         -86.0000              IN - OUT =          -1.3984

 PERCENT DISCREPANCY =          -0.00     PERCENT DISCREPANCY =          -0.00






         TIME SUMMARY AT END OF TIME STEP   78 IN STRESS PERIOD    2
                    SECONDS     MINUTES      HOURS       DAYS        YEARS
                    -----------------------------------------------------------
   TIME STEP LENGTH  86400.      1440.0      24.000      1.0000     2.73785E-03
 STRESS PERIOD TIME 6.73920E+06 1.12320E+05  1872.0      78.000     0.21355    
         TOTAL TIME 6.82560E+06 1.13760E+05  1896.0      79.000     0.21629    
1

 SOLVING FOR HEAD 

    ------------------------------------------------
       NWT REQUIRED            3 OUTER ITERATIONS 
       AND A TOTAL OF          3 INNER ITERATIONS.
    ------------------------------------------------

 OUTPUT CONTROL FOR STRESS PERIOD    2   TIME STEP   79
    SAVE HEAD FOR ALL LAYERS
    SAVE DRAWDOWN FOR ALL LAYERS
    SAVE BUDGET
    PRINT HEAD FOR ALL LAYERS
    PRINT BUDGET
1
              HEAD IN LAYER   1 AT END OF TIME STEP  79 IN STRESS PERIOD    2
  ---------------------------------------------------------------------------

            1           2           3           4           5           6           7           8           9          10
           11          12          13          14          15          16          17          18          19          20
 ........................................................................................................................
   1    0.000       0.000       0.000       0.000       0.000       10.58       10.43       10.87       11.55       11.48    
        10.24       7.369       2.256     -0.2116       5.883       21.62       31.97       37.51       0.000       0.000    
   2    0.000       0.000       0.000       0.000       8.381       7.962       7.168       7.857       9.351       9.632    
        8.763       6.587       2.615     -0.2472       8.462       23.38       33.67       39.57       0.000       0.000    
   3    0.000       0.000       0.000       6.350       6.028       4.107       3.268       3.854       5.282       5.832    
        5.481       4.437       2.835     -0.3842       14.22       26.15       37.11       43.83       0.000       0.000    
   4    0.000       0.000       3.638       3.953       2.776     -0.3577     -0.1277     -0.1807     -0.3595     -0.3135    
      -0.3147     -0.2820       1.414     -0.3941       19.15       32.42       42.16       50.79       0.000       0.000    
   5    0.000       0.000      0.6877      3.7078E-02 -0.5456     -3.8000E-02   5.024       8.350       11.50       12.17    
        10.02      8.2596E-02 -0.3428       1.253       26.18       39.71       53.42       64.49       75.42       0.000    
   6    0.000     -0.4707     -0.5286     -0.2925       2.468       10.83       16.12       19.77       22.39       23.93    
        23.68       21.62       23.03       28.22       41.02       53.47       67.83       72.91       77.87       0.000    
   7    0.000       9.839       11.42       13.27       16.40       21.41       25.81       29.21       31.24       34.23    
        35.84       37.10       40.09       45.64       54.92       65.17       74.21       80.26       0.000       0.000    
   8    0.000       16.06       20.37       23.00       26.02       29.82       33.59       36.94       39.79       42.71    
        45.31       48.09       51.99       57.59       65.06       73.23       80.72       88.81       0.000       0.000    
   9    0.000       0.000       28.12       29.79       32.36       35.56       38.97       42.27       45.41       48.53    
        51.67       55.16       59.51       65.03       71.72       79.05       86.50       94.47       102.3       107.2    
  10    0.000       0.000       31.87       33.22       35.53       38.47       41.70       44.97       48.20       51.44    
        54.83       58.61       63.13       68.61       75.01       82.00       89.22       96.46       102.8       106.5    

 HEAD WILL BE SAVED ON UNIT   51 AT END OF TIME STEP   79, STRESS PERIOD    2

 DRAWDOWN WILL BE SAVED ON UNIT   52 AT END OF TIME STEP   79, STRESS PERIOD    2
1
  VOLUMETRIC BUDGET FOR ENTIRE MODEL AT END OF TIME STEP   79, STRESS PERIOD   2
  ------------------------------------------------------------------------------

     CUMULATIVE VOLUMES      L**3       RATES FOR THIS TIME STEP      L**3/T
     ------------------                 ------------------------

           IN:                                      IN:
           ---                                      ---
             STORAGE =      274263.2812               STORAGE =        2117.4302
       CONSTANT HEAD =           0.0000         CONSTANT HEAD =           0.0000
               WELLS =           0.0000                 WELLS =           0.0000
       RIVER LEAKAGE =           0.0000         RIVER LEAKAGE =           0.0000
            RECHARGE =     2654293.7500              RECHARGE =       33296.1602

            TOTAL IN =     2928557.0000              TOTAL IN =       35413.5898

          OUT:                                     OUT:
          ----                                     ----
             STORAGE =      628453.8750               STORAGE =        7769.0137
       CONSTANT HEAD =           0.0000         CONSTANT HEAD =           0.0000
               WELLS =       40755.9141                 WELLS =         509.4487
       RIVER LEAKAGE =     2259434.5000         RIVER LEAKAGE =       27136.5332
            RECHARGE =           0.0000              RECHARGE =           0.0000

           TOTAL OUT =     2928644.2500             TOTAL OUT =       35414.9961

            IN - OUT =         -87.2500              IN - OUT =          -1.4062

 PERCENT DISCREPANCY =          -0.00     PERCENT DISCREPANCY =          -0.00






         TIME SUMMARY AT END OF TIME STEP   79 IN STRESS PERIOD    2
                    SECONDS     MINUTES      HOURS       DAYS        YEARS
                    -----------------------------------------------------------
   TIME STEP LENGTH  86400.      1440.0      24.000      1.0000     2.73785E-03
 STRESS PERIOD TIME 6.82560E+06 1.13760E+05  1896.0      79.000     0.21629    
         TOTAL TIME 6.91200E+06 1.15200E+05  1920.0      80.000     0.21903    
1

 SOLVING FOR HEAD 

    ------------------------------------------------
       NWT REQUIRED            3 OUTER ITERATIONS 
       AND A TOTAL OF          3 INNER ITERATIONS.
    ------------------------------------------------

 OUTPUT CONTROL FOR STRESS PERIOD    2   TIME STEP   80
    SAVE HEAD FOR ALL LAYERS
    SAVE DRAWDOWN FOR ALL LAYERS
    SAVE BUDGET
    PRINT HEAD FOR ALL LAYERS
    PRINT BUDGET
1
              HEAD IN LAYER   1 AT END OF TIME STEP  80 IN STRESS PERIOD    2
  ---------------------------------------------------------------------------

            1           2           3           4           5           6           7           8           9          10
           11          12          13          14          15          16          17          18          19          20
 ........................................................................................................................
   1    0.000       0.000       0.000       0.000       0.000       10.58       10.43       10.87       11.55       11.49    
        10.24       7.370       2.257     -0.2119       5.884       21.62       31.98       37.51       0.000       0.000    
   2    0.000       0.000       0.000       0.000       8.383       7.964       7.170       7.859       9.353       9.633    
        8.765       6.588       2.617     -0.2476       8.463       23.38       33.67       39.57       0.000       0.000    
   3    0.000       0.000       0.000       6.352       6.030       4.108       3.269       3.855       5.283       5.834    
        5.483       4.439       2.836     -0.3847       14.22       26.15       37.11       43.83       0.000       0.000    
   4    0.000       0.000       3.640       3.954       2.777     -0.3581     -0.1280     -0.1811     -0.3600     -0.3139    
      -0.3151     -0.2822       1.415     -0.3945       19.15       32.42       42.16       50.79       0.000       0.000    
   5    0.000       0.000      0.6882      3.7093E-02 -0.5460     -3.8265E-02   5.025       8.351       11.50       12.18    
        10.02      8.2575E-02 -0.3433       1.253       26.18       39.72       53.42       64.49       75.42       0.000    
   6    0.000     -0.4712     -0.5291     -0.2929       2.468       10.83       16.12       19.77       22.39       23.94    
        23.68       21.62       23.04       28.22       41.03       53.47       67.83       72.92       77.87       0.000    
   7    0.000       9.840       11.42       13.27       16.40       21.41       25.81       29.21       31.24       34.23    
        35.85       37.10       40.09       45.64       54.92       65.17       74.21       80.26       0.000       0.000    
   8    0.000       16.06       20.37       23.00       26.02       29.82       33.59       36.94       39.80       42.71    
        45.31       48.09       51.99       57.59       65.06       73.23       80.72       88.81       0.000       0.000    
   9    0.000       0.000       28.12       29.79       32.36       35.57       38.97       42.27       45.41       48.53    
        51.67       55.16       59.51       65.03       71.72       79.05       86.50       94.47       102.3       107.2    
  10    0.000       0.000       31.87       33.22       35.53       38.47       41.70       44.97       48.20       51.44    
        54.83       58.61       63.13       68.61       75.01       82.00       89.23       96.46       102.8       106.5    

 HEAD WILL BE SAVED ON UNIT   51 AT END OF TIME STEP   80, STRESS PERIOD    2

 DRAWDOWN WILL BE SAVED ON UNIT   52 AT END OF TIME STEP   80, STRESS PERIOD    2
1
  VOLUMETRIC BUDGET FOR ENTIRE MODEL AT END OF TIME STEP   80, STRESS PERIOD   2
  ------------------------------------------------------------------------------

     CUMULATIVE VOLUMES      L**3       RATES FOR THIS TIME STEP      L**3/T
     ------------------                 ------------------------

           IN:                                      IN:
           ---                                      ---
             STORAGE =      276356.7812               STORAGE =        2093.4961
       CONSTANT HEAD =           0.0000         CONSTANT HEAD =           0.0000
               WELLS =           0.0000                 WELLS =           0.0000
       RIVER LEAKAGE =           0.0000         RIVER LEAKAGE =           0.0000
            RECHARGE =     2687590.0000              RECHARGE =       33296.1602

            TOTAL IN =     2963946.7500              TOTAL IN =       35389.6562

          OUT:                                     OUT:
          ----                                     ----
             STORAGE =      636218.8750               STORAGE =        7765.0073
       CONSTANT HEAD =           0.0000         CONSTANT HEAD =           0.0000
               WELLS =       41265.3633                 WELLS =         509.4487
       RIVER LEAKAGE =     2286551.0000         RIVER LEAKAGE =       27116.6113
            RECHARGE =           0.0000              RECHARGE =           0.0000

           TOTAL OUT =     2964035.2500             TOTAL OUT =       35391.0664

            IN - OUT =         -88.5000              IN - OUT =          -1.4102

 PERCENT DISCREPANCY =          -0.00     PERCENT DISCREPANCY =          -0.00






         TIME SUMMARY AT END OF TIME STEP   80 IN STRESS PERIOD    2
                    SECONDS     MINUTES      HOURS       DAYS        YEARS
                    -----------------------------------------------------------
   TIME STEP LENGTH  86400.      1440.0      24.000      1.0000     2.73785E-03
 STRESS PERIOD TIME 6.91200E+06 1.15200E+05  1920.0      80.000     0.21903    
         TOTAL TIME 6.99840E+06 1.16640E+05  1944.0      81.000     0.22177    
1

 SOLVING FOR HEAD 

    ------------------------------------------------
       NWT REQUIRED            3 OUTER ITERATIONS 
       AND A TOTAL OF          3 INNER ITERATIONS.
    ------------------------------------------------

 OUTPUT CONTROL FOR STRESS PERIOD    2   TIME STEP   81
    SAVE HEAD FOR ALL LAYERS
    SAVE DRAWDOWN FOR ALL LAYERS
    SAVE BUDGET
    PRINT HEAD FOR ALL LAYERS
    PRINT BUDGET
1
              HEAD IN LAYER   1 AT END OF TIME STEP  81 IN STRESS PERIOD    2
  ---------------------------------------------------------------------------

            1           2           3           4           5           6           7           8           9          10
           11          12          13          14          15          16          17          18          19          20
 ........................................................................................................................
   1    0.000       0.000       0.000       0.000       0.000       10.58       10.43       10.87       11.55       11.49    
        10.24       7.372       2.258     -0.2122       5.885       21.63       31.98       37.52       0.000       0.000    
   2    0.000       0.000       0.000       0.000       8.384       7.965       7.171       7.860       9.354       9.635    
        8.766       6.590       2.618     -0.2479       8.464       23.38       33.67       39.57       0.000       0.000    
   3    0.000       0.000       0.000       6.354       6.031       4.109       3.270       3.856       5.285       5.835    
        5.484       4.440       2.838     -0.3851       14.22       26.15       37.11       43.83       0.000       0.000    
   4    0.000       0.000       3.641       3.956       2.778     -0.3584     -0.1283     -0.1815     -0.3604     -0.3143    
      -0.3155     -0.2824       1.416     -0.3950       19.15       32.42       42.17       50.79       0.000       0.000    
   5    0.000       0.000      0.6887      3.7110E-02 -0.5465     -3.8528E-02   5.026       8.352       11.50       12.18    
        10.02      8.2558E-02 -0.3438       1.253       26.18       39.72       53.43       64.49       75.42       0.000    
   6    0.000     -0.4717     -0.5295     -0.2933       2.468       10.83       16.12       19.78       22.39       23.94    
        23.68       21.62       23.04       28.22       41.03       53.48       67.83       72.92       77.87       0.000    
   7    0.000       9.841       11.42       13.28       16.40       21.42       25.82       29.21       31.24       34.23    
        35.85       37.10       40.09       45.64       54.92       65.17       74.21       80.26       0.000       0.000    
   8    0.000       16.06       20.37       23.00       26.03       29.82       33.59       36.94       39.80       42.72    
        45.32       48.09       52.00       57.59       65.06       73.23       80.73       88.82       0.000       0.000    
   9    0.000       0.000       28.12       29.80       32.36       35.57       38.97       42.28       45.41       48.53    
        51.67       55.17       59.51       65.03       71.72       79.06       86.50       94.47       102.3       107.2    
  10    0.000       0.000       31.88       33.23       35.53       38.48       41.70       44.98       48.20       51.45    
        54.83       58.61       63.14       68.61       75.01       82.00       89.23       96.46       102.8       106.5    

 HEAD WILL BE SAVED ON UNIT   51 AT END OF TIME STEP   81, STRESS PERIOD    2

 DRAWDOWN WILL BE SAVED ON UNIT   52 AT END OF TIME STEP   81, STRESS PERIOD    2
1
  VOLUMETRIC BUDGET FOR ENTIRE MODEL AT END OF TIME STEP   81, STRESS PERIOD   2
  ------------------------------------------------------------------------------

     CUMULATIVE VOLUMES      L**3       RATES FOR THIS TIME STEP      L**3/T
     ------------------                 ------------------------

           IN:                                      IN:
           ---                                      ---
             STORAGE =      278426.6250               STORAGE =        2069.8440
       CONSTANT HEAD =           0.0000         CONSTANT HEAD =           0.0000
               WELLS =           0.0000                 WELLS =           0.0000
       RIVER LEAKAGE =           0.0000         RIVER LEAKAGE =           0.0000
            RECHARGE =     2720886.2500              RECHARGE =       33296.1602

            TOTAL IN =     2999313.0000              TOTAL IN =       35366.0039

          OUT:                                     OUT:
          ----                                     ----
             STORAGE =      643979.8750               STORAGE =        7761.0210
       CONSTANT HEAD =           0.0000         CONSTANT HEAD =           0.0000
               WELLS =       41774.8125                 WELLS =         509.4487
       RIVER LEAKAGE =     2313648.0000         RIVER LEAKAGE =       27096.9512
            RECHARGE =           0.0000              RECHARGE =           0.0000

           TOTAL OUT =     2999402.7500             TOTAL OUT =       35367.4219

            IN - OUT =         -89.7500              IN - OUT =          -1.4180

 PERCENT DISCREPANCY =          -0.00     PERCENT DISCREPANCY =          -0.00






         TIME SUMMARY AT END OF TIME STEP   81 IN STRESS PERIOD    2
                    SECONDS     MINUTES      HOURS       DAYS        YEARS
                    -----------------------------------------------------------
   TIME STEP LENGTH  86400.      1440.0      24.000      1.0000     2.73785E-03
 STRESS PERIOD TIME 6.99840E+06 1.16640E+05  1944.0      81.000     0.22177    
         TOTAL TIME 7.08480E+06 1.18080E+05  1968.0      82.000     0.22450    
1

 SOLVING FOR HEAD 

    ------------------------------------------------
       NWT REQUIRED            3 OUTER ITERATIONS 
       AND A TOTAL OF          3 INNER ITERATIONS.
    ------------------------------------------------

 OUTPUT CONTROL FOR STRESS PERIOD    2   TIME STEP   82
    SAVE HEAD FOR ALL LAYERS
    SAVE DRAWDOWN FOR ALL LAYERS
    SAVE BUDGET
    PRINT HEAD FOR ALL LAYERS
    PRINT BUDGET
1
              HEAD IN LAYER   1 AT END OF TIME STEP  82 IN STRESS PERIOD    2
  ---------------------------------------------------------------------------

            1           2           3           4           5           6           7           8           9          10
           11          12          13          14          15          16          17          18          19          20
 ........................................................................................................................
   1    0.000       0.000       0.000       0.000       0.000       10.58       10.43       10.87       11.55       11.49    
        10.24       7.373       2.259     -0.2124       5.886       21.63       31.98       37.52       0.000       0.000    
   2    0.000       0.000       0.000       0.000       8.386       7.967       7.173       7.862       9.356       9.636    
        8.768       6.591       2.619     -0.2483       8.465       23.38       33.67       39.57       0.000       0.000    
   3    0.000       0.000       0.000       6.355       6.033       4.110       3.271       3.857       5.286       5.836    
        5.485       4.441       2.839     -0.3855       14.23       26.15       37.12       43.83       0.000       0.000    
   4    0.000       0.000       3.643       3.957       2.779     -0.3588     -0.1286     -0.1818     -0.3608     -0.3148    
      -0.3159     -0.2826       1.417     -0.3954       19.16       32.43       42.17       50.80       0.000       0.000    
   5    0.000       0.000      0.6893      3.7128E-02 -0.5469     -3.8788E-02   5.027       8.353       11.50       12.18    
        10.02      8.2543E-02 -0.3442       1.252       26.18       39.72       53.43       64.50       75.42       0.000    
   6    0.000     -0.4721     -0.5299     -0.2937       2.469       10.83       16.13       19.78       22.39       23.94    
        23.68       21.62       23.04       28.23       41.03       53.48       67.84       72.92       77.87       0.000    
   7    0.000       9.843       11.42       13.28       16.40       21.42       25.82       29.21       31.24       34.23    
        35.85       37.10       40.09       45.64       54.92       65.17       74.21       80.27       0.000       0.000    
   8    0.000       16.06       20.37       23.01       26.03       29.82       33.59       36.95       39.80       42.72    
        45.32       48.09       52.00       57.59       65.06       73.23       80.73       88.82       0.000       0.000    
   9    0.000       0.000       28.12       29.80       32.36       35.57       38.97       42.28       45.41       48.53    
        51.67       55.17       59.51       65.03       71.72       79.06       86.50       94.47       102.3       107.2    
  10    0.000       0.000       31.88       33.23       35.54       38.48       41.71       44.98       48.20       51.45    
        54.83       58.62       63.14       68.62       75.01       82.00       89.23       96.46       102.8       106.5    

 HEAD WILL BE SAVED ON UNIT   51 AT END OF TIME STEP   82, STRESS PERIOD    2

 DRAWDOWN WILL BE SAVED ON UNIT   52 AT END OF TIME STEP   82, STRESS PERIOD    2
1
  VOLUMETRIC BUDGET FOR ENTIRE MODEL AT END OF TIME STEP   82, STRESS PERIOD   2
  ------------------------------------------------------------------------------

     CUMULATIVE VOLUMES      L**3       RATES FOR THIS TIME STEP      L**3/T
     ------------------                 ------------------------

           IN:                                      IN:
           ---                                      ---
             STORAGE =      280473.0938               STORAGE =        2046.4702
       CONSTANT HEAD =           0.0000         CONSTANT HEAD =           0.0000
               WELLS =           0.0000                 WELLS =           0.0000
       RIVER LEAKAGE =           0.0000         RIVER LEAKAGE =           0.0000
            RECHARGE =     2754182.5000              RECHARGE =       33296.1602

            TOTAL IN =     3034655.5000              TOTAL IN =       35342.6289

          OUT:                                     OUT:
          ----                                     ----
             STORAGE =      651736.9375               STORAGE =        7757.0547
       CONSTANT HEAD =           0.0000         CONSTANT HEAD =           0.0000
               WELLS =       42284.2617                 WELLS =         509.4487
       RIVER LEAKAGE =     2340725.5000         RIVER LEAKAGE =       27077.5469
            RECHARGE =           0.0000              RECHARGE =           0.0000

           TOTAL OUT =     3034746.7500             TOTAL OUT =       35344.0508

            IN - OUT =         -91.2500              IN - OUT =          -1.4219

 PERCENT DISCREPANCY =          -0.00     PERCENT DISCREPANCY =          -0.00






         TIME SUMMARY AT END OF TIME STEP   82 IN STRESS PERIOD    2
                    SECONDS     MINUTES      HOURS       DAYS        YEARS
                    -----------------------------------------------------------
   TIME STEP LENGTH  86400.      1440.0      24.000      1.0000     2.73785E-03
 STRESS PERIOD TIME 7.08480E+06 1.18080E+05  1968.0      82.000     0.22450    
         TOTAL TIME 7.17120E+06 1.19520E+05  1992.0      83.000     0.22724    
1

 SOLVING FOR HEAD 

    ------------------------------------------------
       NWT REQUIRED            3 OUTER ITERATIONS 
       AND A TOTAL OF          3 INNER ITERATIONS.
    ------------------------------------------------

 OUTPUT CONTROL FOR STRESS PERIOD    2   TIME STEP   83
    SAVE HEAD FOR ALL LAYERS
    SAVE DRAWDOWN FOR ALL LAYERS
    SAVE BUDGET
    PRINT HEAD FOR ALL LAYERS
    PRINT BUDGET
1
              HEAD IN LAYER   1 AT END OF TIME STEP  83 IN STRESS PERIOD    2
  ---------------------------------------------------------------------------

            1           2           3           4           5           6           7           8           9          10
           11          12          13          14          15          16          17          18          19          20
 ........................................................................................................................
   1    0.000       0.000       0.000       0.000       0.000       10.58       10.44       10.87       11.56       11.49    
        10.24       7.375       2.260     -0.2127       5.887       21.63       31.98       37.52       0.000       0.000    
   2    0.000       0.000       0.000       0.000       8.388       7.968       7.174       7.863       9.357       9.638    
        8.769       6.593       2.620     -0.2486       8.466       23.38       33.68       39.58       0.000       0.000    
   3    0.000       0.000       0.000       6.357       6.034       4.112       3.272       3.858       5.287       5.838    
        5.487       4.443       2.840     -0.3860       14.23       26.15       37.12       43.84       0.000       0.000    
   4    0.000       0.000       3.644       3.958       2.781     -0.3592     -0.1289     -0.1822     -0.3613     -0.3152    
      -0.3163     -0.2829       1.418     -0.3959       19.16       32.43       42.17       50.80       0.000       0.000    
   5    0.000       0.000      0.6898      3.7147E-02 -0.5474     -3.9047E-02   5.028       8.355       11.51       12.18    
        10.03      8.2532E-02 -0.3446       1.252       26.18       39.72       53.43       64.50       75.42       0.000    
   6    0.000     -0.4726     -0.5304     -0.2941       2.469       10.83       16.13       19.78       22.39       23.94    
        23.69       21.63       23.04       28.23       41.03       53.48       67.84       72.92       77.88       0.000    
   7    0.000       9.844       11.43       13.28       16.40       21.42       25.82       29.22       31.24       34.24    
        35.85       37.10       40.10       45.64       54.92       65.17       74.22       80.27       0.000       0.000    
   8    0.000       16.07       20.37       23.01       26.03       29.82       33.59       36.95       39.80       42.72    
        45.32       48.10       52.00       57.59       65.06       73.24       80.73       88.82       0.000       0.000    
   9    0.000       0.000       28.13       29.80       32.37       35.57       38.97       42.28       45.41       48.53    
        51.67       55.17       59.51       65.03       71.73       79.06       86.50       94.47       102.3       107.2    
  10    0.000       0.000       31.88       33.23       35.54       38.48       41.71       44.98       48.20       51.45    
        54.83       58.62       63.14       68.62       75.01       82.01       89.23       96.47       102.8       106.5    

 HEAD WILL BE SAVED ON UNIT   51 AT END OF TIME STEP   83, STRESS PERIOD    2

 DRAWDOWN WILL BE SAVED ON UNIT   52 AT END OF TIME STEP   83, STRESS PERIOD    2
1
  VOLUMETRIC BUDGET FOR ENTIRE MODEL AT END OF TIME STEP   83, STRESS PERIOD   2
  ------------------------------------------------------------------------------

     CUMULATIVE VOLUMES      L**3       RATES FOR THIS TIME STEP      L**3/T
     ------------------                 ------------------------

           IN:                                      IN:
           ---                                      ---
             STORAGE =      282496.4688               STORAGE =        2023.3707
       CONSTANT HEAD =           0.0000         CONSTANT HEAD =           0.0000
               WELLS =           0.0000                 WELLS =           0.0000
       RIVER LEAKAGE =           0.0000         RIVER LEAKAGE =           0.0000
            RECHARGE =     2787478.7500              RECHARGE =       33296.1602

            TOTAL IN =     3069975.2500              TOTAL IN =       35319.5312

          OUT:                                     OUT:
          ----                                     ----
             STORAGE =      659490.0625               STORAGE =        7753.1084
       CONSTANT HEAD =           0.0000         CONSTANT HEAD =           0.0000
               WELLS =       42793.7109                 WELLS =         509.4487
       RIVER LEAKAGE =     2367784.0000         RIVER LEAKAGE =       27058.4004
            RECHARGE =           0.0000              RECHARGE =           0.0000

           TOTAL OUT =     3070067.7500             TOTAL OUT =       35320.9570

            IN - OUT =         -92.5000              IN - OUT =          -1.4258

 PERCENT DISCREPANCY =          -0.00     PERCENT DISCREPANCY =          -0.00






         TIME SUMMARY AT END OF TIME STEP   83 IN STRESS PERIOD    2
                    SECONDS     MINUTES      HOURS       DAYS        YEARS
                    -----------------------------------------------------------
   TIME STEP LENGTH  86400.      1440.0      24.000      1.0000     2.73785E-03
 STRESS PERIOD TIME 7.17120E+06 1.19520E+05  1992.0      83.000     0.22724    
         TOTAL TIME 7.25760E+06 1.20960E+05  2016.0      84.000     0.22998    
1

 SOLVING FOR HEAD 

    ------------------------------------------------
       NWT REQUIRED            3 OUTER ITERATIONS 
       AND A TOTAL OF          3 INNER ITERATIONS.
    ------------------------------------------------

 OUTPUT CONTROL FOR STRESS PERIOD    2   TIME STEP   84
    SAVE HEAD FOR ALL LAYERS
    SAVE DRAWDOWN FOR ALL LAYERS
    SAVE BUDGET
    PRINT HEAD FOR ALL LAYERS
    PRINT BUDGET
1
              HEAD IN LAYER   1 AT END OF TIME STEP  84 IN STRESS PERIOD    2
  ---------------------------------------------------------------------------

            1           2           3           4           5           6           7           8           9          10
           11          12          13          14          15          16          17          18          19          20
 ........................................................................................................................
   1    0.000       0.000       0.000       0.000       0.000       10.58       10.44       10.87       11.56       11.49    
        10.25       7.376       2.261     -0.2130       5.888       21.63       31.98       37.52       0.000       0.000    
   2    0.000       0.000       0.000       0.000       8.389       7.970       7.176       7.865       9.359       9.640    
        8.771       6.594       2.621     -0.2490       8.467       23.39       33.68       39.58       0.000       0.000    
   3    0.000       0.000       0.000       6.358       6.036       4.113       3.273       3.859       5.288       5.839    
        5.488       4.444       2.841     -0.3864       14.23       26.16       37.12       43.84       0.000       0.000    
   4    0.000       0.000       3.646       3.960       2.782     -0.3595     -0.1292     -0.1825     -0.3617     -0.3156    
      -0.3167     -0.2831       1.419     -0.3963       19.16       32.43       42.17       50.80       0.000       0.000    
   5    0.000       0.000      0.6903      3.7167E-02 -0.5478     -3.9304E-02   5.029       8.356       11.51       12.18    
        10.03      8.2523E-02 -0.3451       1.252       26.19       39.72       53.43       64.50       75.42       0.000    
   6    0.000     -0.4730     -0.5308     -0.2945       2.469       10.83       16.13       19.78       22.39       23.94    
        23.69       21.63       23.04       28.23       41.03       53.48       67.84       72.92       77.88       0.000    
   7    0.000       9.845       11.43       13.28       16.41       21.42       25.82       29.22       31.25       34.24    
        35.85       37.10       40.10       45.65       54.93       65.17       74.22       80.27       0.000       0.000    
   8    0.000       16.07       20.37       23.01       26.03       29.83       33.60       36.95       39.80       42.72    
        45.32       48.10       52.00       57.60       65.06       73.24       80.73       88.82       0.000       0.000    
   9    0.000       0.000       28.13       29.80       32.37       35.57       38.97       42.28       45.41       48.53    
        51.68       55.17       59.52       65.04       71.73       79.06       86.50       94.47       102.3       107.2    
  10    0.000       0.000       31.88       33.23       35.54       38.48       41.71       44.98       48.21       51.45    
        54.83       58.62       63.14       68.62       75.01       82.01       89.23       96.47       102.8       106.5    

 HEAD WILL BE SAVED ON UNIT   51 AT END OF TIME STEP   84, STRESS PERIOD    2

 DRAWDOWN WILL BE SAVED ON UNIT   52 AT END OF TIME STEP   84, STRESS PERIOD    2
1
  VOLUMETRIC BUDGET FOR ENTIRE MODEL AT END OF TIME STEP   84, STRESS PERIOD   2
  ------------------------------------------------------------------------------

     CUMULATIVE VOLUMES      L**3       RATES FOR THIS TIME STEP      L**3/T
     ------------------                 ------------------------

           IN:                                      IN:
           ---                                      ---
             STORAGE =      284497.0000               STORAGE =        2000.5419
       CONSTANT HEAD =           0.0000         CONSTANT HEAD =           0.0000
               WELLS =           0.0000                 WELLS =           0.0000
       RIVER LEAKAGE =           0.0000         RIVER LEAKAGE =           0.0000
            RECHARGE =     2820775.0000              RECHARGE =       33296.1602

            TOTAL IN =     3105272.0000              TOTAL IN =       35296.7031

          OUT:                                     OUT:
          ----                                     ----
             STORAGE =      667239.2500               STORAGE =        7749.1812
       CONSTANT HEAD =           0.0000         CONSTANT HEAD =           0.0000
               WELLS =       43303.1602                 WELLS =         509.4487
       RIVER LEAKAGE =     2394823.5000         RIVER LEAKAGE =       27039.5020
            RECHARGE =           0.0000              RECHARGE =           0.0000

           TOTAL OUT =     3105366.0000             TOTAL OUT =       35298.1328

            IN - OUT =         -94.0000              IN - OUT =          -1.4297

 PERCENT DISCREPANCY =          -0.00     PERCENT DISCREPANCY =          -0.00






         TIME SUMMARY AT END OF TIME STEP   84 IN STRESS PERIOD    2
                    SECONDS     MINUTES      HOURS       DAYS        YEARS
                    -----------------------------------------------------------
   TIME STEP LENGTH  86400.      1440.0      24.000      1.0000     2.73785E-03
 STRESS PERIOD TIME 7.25760E+06 1.20960E+05  2016.0      84.000     0.22998    
         TOTAL TIME 7.34400E+06 1.22400E+05  2040.0      85.000     0.23272    
1

 SOLVING FOR HEAD 

    ------------------------------------------------
       NWT REQUIRED            3 OUTER ITERATIONS 
       AND A TOTAL OF          3 INNER ITERATIONS.
    ------------------------------------------------

 OUTPUT CONTROL FOR STRESS PERIOD    2   TIME STEP   85
    SAVE HEAD FOR ALL LAYERS
    SAVE DRAWDOWN FOR ALL LAYERS
    SAVE BUDGET
    PRINT HEAD FOR ALL LAYERS
    PRINT BUDGET
1
              HEAD IN LAYER   1 AT END OF TIME STEP  85 IN STRESS PERIOD    2
  ---------------------------------------------------------------------------

            1           2           3           4           5           6           7           8           9          10
           11          12          13          14          15          16          17          18          19          20
 ........................................................................................................................
   1    0.000       0.000       0.000       0.000       0.000       10.59       10.44       10.88       11.56       11.49    
        10.25       7.378       2.262     -0.2133       5.889       21.63       31.98       37.52       0.000       0.000    
   2    0.000       0.000       0.000       0.000       8.391       7.971       7.177       7.866       9.360       9.641    
        8.773       6.596       2.622     -0.2493       8.468       23.39       33.68       39.58       0.000       0.000    
   3    0.000       0.000       0.000       6.360       6.037       4.114       3.274       3.860       5.290       5.840    
        5.489       4.445       2.843     -0.3868       14.23       26.16       37.12       43.84       0.000       0.000    
   4    0.000       0.000       3.647       3.961       2.783     -0.3599     -0.1295     -0.1829     -0.3621     -0.3160    
      -0.3171     -0.2833       1.420     -0.3967       19.16       32.43       42.17       50.80       0.000       0.000    
   5    0.000       0.000      0.6908      3.7188E-02 -0.5482     -3.9560E-02   5.030       8.357       11.51       12.18    
        10.03      8.2517E-02 -0.3455       1.252       26.19       39.72       53.43       64.50       75.42       0.000    
   6    0.000     -0.4735     -0.5312     -0.2949       2.469       10.83       16.13       19.78       22.40       23.94    
        23.69       21.63       23.04       28.23       41.03       53.48       67.84       72.92       77.88       0.000    
   7    0.000       9.847       11.43       13.28       16.41       21.42       25.82       29.22       31.25       34.24    
        35.85       37.11       40.10       45.65       54.93       65.18       74.22       80.27       0.000       0.000    
   8    0.000       16.07       20.38       23.01       26.03       29.83       33.60       36.95       39.80       42.72    
        45.32       48.10       52.00       57.60       65.07       73.24       80.73       88.82       0.000       0.000    
   9    0.000       0.000       28.13       29.80       32.37       35.57       38.98       42.28       45.42       48.53    
        51.68       55.17       59.52       65.04       71.73       79.06       86.51       94.48       102.3       107.2    
  10    0.000       0.000       31.88       33.23       35.54       38.48       41.71       44.98       48.21       51.45    
        54.84       58.62       63.14       68.62       75.02       82.01       89.23       96.47       102.8       106.5    

 HEAD WILL BE SAVED ON UNIT   51 AT END OF TIME STEP   85, STRESS PERIOD    2

 DRAWDOWN WILL BE SAVED ON UNIT   52 AT END OF TIME STEP   85, STRESS PERIOD    2
1
  VOLUMETRIC BUDGET FOR ENTIRE MODEL AT END OF TIME STEP   85, STRESS PERIOD   2
  ------------------------------------------------------------------------------

     CUMULATIVE VOLUMES      L**3       RATES FOR THIS TIME STEP      L**3/T
     ------------------                 ------------------------

           IN:                                      IN:
           ---                                      ---
             STORAGE =      286474.9688               STORAGE =        1977.9797
       CONSTANT HEAD =           0.0000         CONSTANT HEAD =           0.0000
               WELLS =           0.0000                 WELLS =           0.0000
       RIVER LEAKAGE =           0.0000         RIVER LEAKAGE =           0.0000
            RECHARGE =     2854071.2500              RECHARGE =       33296.1602

            TOTAL IN =     3140546.2500              TOTAL IN =       35274.1406

          OUT:                                     OUT:
          ----                                     ----
             STORAGE =      674984.5000               STORAGE =        7745.2734
       CONSTANT HEAD =           0.0000         CONSTANT HEAD =           0.0000
               WELLS =       43812.6094                 WELLS =         509.4487
       RIVER LEAKAGE =     2421844.2500         RIVER LEAKAGE =       27020.8535
            RECHARGE =           0.0000              RECHARGE =           0.0000

           TOTAL OUT =     3140641.5000             TOTAL OUT =       35275.5742

            IN - OUT =         -95.2500              IN - OUT =          -1.4336

 PERCENT DISCREPANCY =          -0.00     PERCENT DISCREPANCY =          -0.00






         TIME SUMMARY AT END OF TIME STEP   85 IN STRESS PERIOD    2
                    SECONDS     MINUTES      HOURS       DAYS        YEARS
                    -----------------------------------------------------------
   TIME STEP LENGTH  86400.      1440.0      24.000      1.0000     2.73785E-03
 STRESS PERIOD TIME 7.34400E+06 1.22400E+05  2040.0      85.000     0.23272    
         TOTAL TIME 7.43040E+06 1.23840E+05  2064.0      86.000     0.23546    
1

 SOLVING FOR HEAD 

    ------------------------------------------------
       NWT REQUIRED            3 OUTER ITERATIONS 
       AND A TOTAL OF          3 INNER ITERATIONS.
    ------------------------------------------------

 OUTPUT CONTROL FOR STRESS PERIOD    2   TIME STEP   86
    SAVE HEAD FOR ALL LAYERS
    SAVE DRAWDOWN FOR ALL LAYERS
    SAVE BUDGET
    PRINT HEAD FOR ALL LAYERS
    PRINT BUDGET
1
              HEAD IN LAYER   1 AT END OF TIME STEP  86 IN STRESS PERIOD    2
  ---------------------------------------------------------------------------

            1           2           3           4           5           6           7           8           9          10
           11          12          13          14          15          16          17          18          19          20
 ........................................................................................................................
   1    0.000       0.000       0.000       0.000       0.000       10.59       10.44       10.88       11.56       11.50    
        10.25       7.379       2.263     -0.2136       5.890       21.63       31.98       37.52       0.000       0.000    
   2    0.000       0.000       0.000       0.000       8.392       7.973       7.178       7.868       9.362       9.643    
        8.774       6.597       2.623     -0.2497       8.469       23.39       33.68       39.58       0.000       0.000    
   3    0.000       0.000       0.000       6.361       6.039       4.115       3.275       3.861       5.291       5.842    
        5.491       4.447       2.844     -0.3872       14.23       26.16       37.12       43.84       0.000       0.000    
   4    0.000       0.000       3.648       3.962       2.784     -0.3602     -0.1298     -0.1832     -0.3625     -0.3164    
      -0.3174     -0.2835       1.421     -0.3972       19.16       32.43       42.17       50.80       0.000       0.000    
   5    0.000       0.000      0.6913      3.7211E-02 -0.5486     -3.9813E-02   5.031       8.358       11.51       12.18    
        10.03      8.2514E-02 -0.3459       1.252       26.19       39.72       53.43       64.50       75.43       0.000    
   6    0.000     -0.4739     -0.5316     -0.2953       2.470       10.83       16.13       19.78       22.40       23.95    
        23.69       21.63       23.04       28.23       41.03       53.48       67.84       72.93       77.88       0.000    
   7    0.000       9.848       11.43       13.28       16.41       21.42       25.82       29.22       31.25       34.24    
        35.86       37.11       40.10       45.65       54.93       65.18       74.22       80.27       0.000       0.000    
   8    0.000       16.07       20.38       23.01       26.03       29.83       33.60       36.95       39.81       42.72    
        45.32       48.10       52.00       57.60       65.07       73.24       80.73       88.82       0.000       0.000    
   9    0.000       0.000       28.13       29.80       32.37       35.57       38.98       42.28       45.42       48.54    
        51.68       55.17       59.52       65.04       71.73       79.06       86.51       94.48       102.3       107.2    
  10    0.000       0.000       31.88       33.23       35.54       38.48       41.71       44.98       48.21       51.45    
        54.84       58.62       63.14       68.62       75.02       82.01       89.23       96.47       102.8       106.5    

 HEAD WILL BE SAVED ON UNIT   51 AT END OF TIME STEP   86, STRESS PERIOD    2

 DRAWDOWN WILL BE SAVED ON UNIT   52 AT END OF TIME STEP   86, STRESS PERIOD    2
1
  VOLUMETRIC BUDGET FOR ENTIRE MODEL AT END OF TIME STEP   86, STRESS PERIOD   2
  ------------------------------------------------------------------------------

     CUMULATIVE VOLUMES      L**3       RATES FOR THIS TIME STEP      L**3/T
     ------------------                 ------------------------

           IN:                                      IN:
           ---                                      ---
             STORAGE =      288430.6562               STORAGE =        1955.6809
       CONSTANT HEAD =           0.0000         CONSTANT HEAD =           0.0000
               WELLS =           0.0000                 WELLS =           0.0000
       RIVER LEAKAGE =           0.0000         RIVER LEAKAGE =           0.0000
            RECHARGE =     2887367.5000              RECHARGE =       33296.1602

            TOTAL IN =     3175798.2500              TOTAL IN =       35251.8398

          OUT:                                     OUT:
          ----                                     ----
             STORAGE =      682725.8750               STORAGE =        7741.3853
       CONSTANT HEAD =           0.0000         CONSTANT HEAD =           0.0000
               WELLS =       44322.0586                 WELLS =         509.4487
       RIVER LEAKAGE =     2448846.7500         RIVER LEAKAGE =       27002.4473
            RECHARGE =           0.0000              RECHARGE =           0.0000

           TOTAL OUT =     3175894.7500             TOTAL OUT =       35253.2812

            IN - OUT =         -96.5000              IN - OUT =          -1.4414

 PERCENT DISCREPANCY =          -0.00     PERCENT DISCREPANCY =          -0.00






         TIME SUMMARY AT END OF TIME STEP   86 IN STRESS PERIOD    2
                    SECONDS     MINUTES      HOURS       DAYS        YEARS
                    -----------------------------------------------------------
   TIME STEP LENGTH  86400.      1440.0      24.000      1.0000     2.73785E-03
 STRESS PERIOD TIME 7.43040E+06 1.23840E+05  2064.0      86.000     0.23546    
         TOTAL TIME 7.51680E+06 1.25280E+05  2088.0      87.000     0.23819    
1

 SOLVING FOR HEAD 

    ------------------------------------------------
       NWT REQUIRED            3 OUTER ITERATIONS 
       AND A TOTAL OF          3 INNER ITERATIONS.
    ------------------------------------------------

 OUTPUT CONTROL FOR STRESS PERIOD    2   TIME STEP   87
    SAVE HEAD FOR ALL LAYERS
    SAVE DRAWDOWN FOR ALL LAYERS
    SAVE BUDGET
    PRINT HEAD FOR ALL LAYERS
    PRINT BUDGET
1
              HEAD IN LAYER   1 AT END OF TIME STEP  87 IN STRESS PERIOD    2
  ---------------------------------------------------------------------------

            1           2           3           4           5           6           7           8           9          10
           11          12          13          14          15          16          17          18          19          20
 ........................................................................................................................
   1    0.000       0.000       0.000       0.000       0.000       10.59       10.44       10.88       11.56       11.50    
        10.25       7.381       2.264     -0.2139       5.891       21.63       31.99       37.52       0.000       0.000    
   2    0.000       0.000       0.000       0.000       8.394       7.974       7.180       7.869       9.363       9.644    
        8.776       6.599       2.624     -0.2500       8.470       23.39       33.68       39.58       0.000       0.000    
   3    0.000       0.000       0.000       6.363       6.040       4.116       3.276       3.862       5.292       5.843    
        5.492       4.448       2.845     -0.3876       14.23       26.16       37.12       43.84       0.000       0.000    
   4    0.000       0.000       3.650       3.964       2.785     -0.3606     -0.1300     -0.1836     -0.3629     -0.3168    
      -0.3178     -0.2837       1.422     -0.3976       19.16       32.43       42.17       50.80       0.000       0.000    
   5    0.000       0.000      0.6918      3.7234E-02 -0.5490     -4.0065E-02   5.032       8.359       11.51       12.18    
        10.03      8.2512E-02 -0.3463       1.252       26.19       39.73       53.44       64.50       75.43       0.000    
   6    0.000     -0.4743     -0.5320     -0.2957       2.470       10.84       16.13       19.79       22.40       23.95    
        23.69       21.63       23.04       28.23       41.04       53.49       67.84       72.93       77.88       0.000    
   7    0.000       9.849       11.43       13.28       16.41       21.42       25.83       29.22       31.25       34.24    
        35.86       37.11       40.10       45.65       54.93       65.18       74.22       80.27       0.000       0.000    
   8    0.000       16.07       20.38       23.01       26.03       29.83       33.60       36.95       39.81       42.72    
        45.33       48.10       52.01       57.60       65.07       73.24       80.74       88.83       0.000       0.000    
   9    0.000       0.000       28.13       29.80       32.37       35.58       38.98       42.29       45.42       48.54    
        51.68       55.17       59.52       65.04       71.73       79.06       86.51       94.48       102.3       107.2    
  10    0.000       0.000       31.88       33.24       35.54       38.48       41.71       44.98       48.21       51.46    
        54.84       58.62       63.15       68.62       75.02       82.01       89.24       96.47       102.8       106.5    

 HEAD WILL BE SAVED ON UNIT   51 AT END OF TIME STEP   87, STRESS PERIOD    2

 DRAWDOWN WILL BE SAVED ON UNIT   52 AT END OF TIME STEP   87, STRESS PERIOD    2
1
  VOLUMETRIC BUDGET FOR ENTIRE MODEL AT END OF TIME STEP   87, STRESS PERIOD   2
  ------------------------------------------------------------------------------

     CUMULATIVE VOLUMES      L**3       RATES FOR THIS TIME STEP      L**3/T
     ------------------                 ------------------------

           IN:                                      IN:
           ---                                      ---
             STORAGE =      290364.3125               STORAGE =        1933.6416
       CONSTANT HEAD =           0.0000         CONSTANT HEAD =           0.0000
               WELLS =           0.0000                 WELLS =           0.0000
       RIVER LEAKAGE =           0.0000         RIVER LEAKAGE =           0.0000
            RECHARGE =     2920663.7500              RECHARGE =       33296.1602

            TOTAL IN =     3211028.0000              TOTAL IN =       35229.8008

          OUT:                                     OUT:
          ----                                     ----
             STORAGE =      690463.3750               STORAGE =        7737.5151
       CONSTANT HEAD =           0.0000         CONSTANT HEAD =           0.0000
               WELLS =       44831.5078                 WELLS =         509.4487
       RIVER LEAKAGE =     2475831.0000         RIVER LEAKAGE =       26984.2832
            RECHARGE =           0.0000              RECHARGE =           0.0000

           TOTAL OUT =     3211126.0000             TOTAL OUT =       35231.2461

            IN - OUT =         -98.0000              IN - OUT =          -1.4453

 PERCENT DISCREPANCY =          -0.00     PERCENT DISCREPANCY =          -0.00






         TIME SUMMARY AT END OF TIME STEP   87 IN STRESS PERIOD    2
                    SECONDS     MINUTES      HOURS       DAYS        YEARS
                    -----------------------------------------------------------
   TIME STEP LENGTH  86400.      1440.0      24.000      1.0000     2.73785E-03
 STRESS PERIOD TIME 7.51680E+06 1.25280E+05  2088.0      87.000     0.23819    
         TOTAL TIME 7.60320E+06 1.26720E+05  2112.0      88.000     0.24093    
1

 SOLVING FOR HEAD 

    ------------------------------------------------
       NWT REQUIRED            3 OUTER ITERATIONS 
       AND A TOTAL OF          3 INNER ITERATIONS.
    ------------------------------------------------

 OUTPUT CONTROL FOR STRESS PERIOD    2   TIME STEP   88
    SAVE HEAD FOR ALL LAYERS
    SAVE DRAWDOWN FOR ALL LAYERS
    SAVE BUDGET
    PRINT HEAD FOR ALL LAYERS
    PRINT BUDGET
1
              HEAD IN LAYER   1 AT END OF TIME STEP  88 IN STRESS PERIOD    2
  ---------------------------------------------------------------------------

            1           2           3           4           5           6           7           8           9          10
           11          12          13          14          15          16          17          18          19          20
 ........................................................................................................................
   1    0.000       0.000       0.000       0.000       0.000       10.59       10.44       10.88       11.56       11.50    
        10.25       7.382       2.265     -0.2141       5.892       21.64       31.99       37.53       0.000       0.000    
   2    0.000       0.000       0.000       0.000       8.395       7.976       7.181       7.871       9.365       9.646    
        8.777       6.600       2.625     -0.2503       8.471       23.39       33.68       39.58       0.000       0.000    
   3    0.000       0.000       0.000       6.364       6.042       4.117       3.277       3.863       5.294       5.844    
        5.493       4.449       2.847     -0.3880       14.23       26.16       37.12       43.84       0.000       0.000    
   4    0.000       0.000       3.651       3.965       2.786     -0.3609     -0.1303     -0.1839     -0.3633     -0.3172    
      -0.3182     -0.2839       1.423     -0.3980       19.16       32.43       42.18       50.80       0.000       0.000    
   5    0.000       0.000      0.6923      3.7259E-02 -0.5494     -4.0315E-02   5.033       8.361       11.51       12.19    
        10.03      8.2513E-02 -0.3467       1.252       26.19       39.73       53.44       64.51       75.43       0.000    
   6    0.000     -0.4747     -0.5324     -0.2961       2.470       10.84       16.14       19.79       22.40       23.95    
        23.69       21.63       23.05       28.23       41.04       53.49       67.84       72.93       77.88       0.000    
   7    0.000       9.850       11.43       13.28       16.41       21.43       25.83       29.22       31.25       34.24    
        35.86       37.11       40.10       45.65       54.93       65.18       74.22       80.27       0.000       0.000    
   8    0.000       16.07       20.38       23.01       26.04       29.83       33.60       36.95       39.81       42.73    
        45.33       48.10       52.01       57.60       65.07       73.24       80.74       88.83       0.000       0.000    
   9    0.000       0.000       28.13       29.81       32.37       35.58       38.98       42.29       45.42       48.54    
        51.68       55.18       59.52       65.04       71.73       79.07       86.51       94.48       102.3       107.2    
  10    0.000       0.000       31.89       33.24       35.55       38.49       41.71       44.99       48.21       51.46    
        54.84       58.62       63.15       68.62       75.02       82.01       89.24       96.47       102.8       106.5    

 HEAD WILL BE SAVED ON UNIT   51 AT END OF TIME STEP   88, STRESS PERIOD    2

 DRAWDOWN WILL BE SAVED ON UNIT   52 AT END OF TIME STEP   88, STRESS PERIOD    2
1
  VOLUMETRIC BUDGET FOR ENTIRE MODEL AT END OF TIME STEP   88, STRESS PERIOD   2
  ------------------------------------------------------------------------------

     CUMULATIVE VOLUMES      L**3       RATES FOR THIS TIME STEP      L**3/T
     ------------------                 ------------------------

           IN:                                      IN:
           ---                                      ---
             STORAGE =      292276.2188               STORAGE =        1911.8972
       CONSTANT HEAD =           0.0000         CONSTANT HEAD =           0.0000
               WELLS =           0.0000                 WELLS =           0.0000
       RIVER LEAKAGE =           0.0000         RIVER LEAKAGE =           0.0000
            RECHARGE =     2953960.0000              RECHARGE =       33296.1602

            TOTAL IN =     3246236.2500              TOTAL IN =       35208.0586

          OUT:                                     OUT:
          ----                                     ----
             STORAGE =      698197.0625               STORAGE =        7733.7026
       CONSTANT HEAD =           0.0000         CONSTANT HEAD =           0.0000
               WELLS =       45340.9570                 WELLS =         509.4487
       RIVER LEAKAGE =     2502797.2500         RIVER LEAKAGE =       26966.3555
            RECHARGE =           0.0000              RECHARGE =           0.0000

           TOTAL OUT =     3246335.2500             TOTAL OUT =       35209.5078

            IN - OUT =         -99.0000              IN - OUT =          -1.4492

 PERCENT DISCREPANCY =          -0.00     PERCENT DISCREPANCY =          -0.00






         TIME SUMMARY AT END OF TIME STEP   88 IN STRESS PERIOD    2
                    SECONDS     MINUTES      HOURS       DAYS        YEARS
                    -----------------------------------------------------------
   TIME STEP LENGTH  86400.      1440.0      24.000      1.0000     2.73785E-03
 STRESS PERIOD TIME 7.60320E+06 1.26720E+05  2112.0      88.000     0.24093    
         TOTAL TIME 7.68960E+06 1.28160E+05  2136.0      89.000     0.24367    
1

 SOLVING FOR HEAD 

    ------------------------------------------------
       NWT REQUIRED            3 OUTER ITERATIONS 
       AND A TOTAL OF          3 INNER ITERATIONS.
    ------------------------------------------------

 OUTPUT CONTROL FOR STRESS PERIOD    2   TIME STEP   89
    SAVE HEAD FOR ALL LAYERS
    SAVE DRAWDOWN FOR ALL LAYERS
    SAVE BUDGET
    PRINT HEAD FOR ALL LAYERS
    PRINT BUDGET
1
              HEAD IN LAYER   1 AT END OF TIME STEP  89 IN STRESS PERIOD    2
  ---------------------------------------------------------------------------

            1           2           3           4           5           6           7           8           9          10
           11          12          13          14          15          16          17          18          19          20
 ........................................................................................................................
   1    0.000       0.000       0.000       0.000       0.000       10.59       10.45       10.88       11.57       11.50    
        10.25       7.384       2.266     -0.2144       5.893       21.64       31.99       37.53       0.000       0.000    
   2    0.000       0.000       0.000       0.000       8.397       7.978       7.183       7.872       9.366       9.647    
        8.779       6.602       2.627     -0.2507       8.473       23.39       33.68       39.59       0.000       0.000    
   3    0.000       0.000       0.000       6.366       6.043       4.118       3.278       3.864       5.295       5.846    
        5.495       4.451       2.848     -0.3884       14.24       26.16       37.13       43.85       0.000       0.000    
   4    0.000       0.000       3.653       3.966       2.787     -0.3612     -0.1306     -0.1842     -0.3637     -0.3176    
      -0.3186     -0.2841       1.424     -0.3984       19.16       32.44       42.18       50.81       0.000       0.000    
   5    0.000       0.000      0.6928      3.7285E-02 -0.5499     -4.0563E-02   5.034       8.362       11.51       12.19    
        10.03      8.2517E-02 -0.3471       1.252       26.19       39.73       53.44       64.51       75.43       0.000    
   6    0.000     -0.4752     -0.5328     -0.2965       2.470       10.84       16.14       19.79       22.40       23.95    
        23.69       21.63       23.05       28.24       41.04       53.49       67.85       72.93       77.89       0.000    
   7    0.000       9.852       11.43       13.29       16.41       21.43       25.83       29.22       31.25       34.25    
        35.86       37.11       40.11       45.65       54.93       65.18       74.23       80.28       0.000       0.000    
   8    0.000       16.07       20.38       23.02       26.04       29.83       33.60       36.96       39.81       42.73    
        45.33       48.11       52.01       57.60       65.07       73.24       80.74       88.83       0.000       0.000    
   9    0.000       0.000       28.13       29.81       32.38       35.58       38.98       42.29       45.42       48.54    
        51.68       55.18       59.52       65.04       71.73       79.07       86.51       94.48       102.3       107.2    
  10    0.000       0.000       31.89       33.24       35.55       38.49       41.72       44.99       48.21       51.46    
        54.84       58.63       63.15       68.63       75.02       82.01       89.24       96.48       102.8       106.5    

 HEAD WILL BE SAVED ON UNIT   51 AT END OF TIME STEP   89, STRESS PERIOD    2

 DRAWDOWN WILL BE SAVED ON UNIT   52 AT END OF TIME STEP   89, STRESS PERIOD    2
1
  VOLUMETRIC BUDGET FOR ENTIRE MODEL AT END OF TIME STEP   89, STRESS PERIOD   2
  ------------------------------------------------------------------------------

     CUMULATIVE VOLUMES      L**3       RATES FOR THIS TIME STEP      L**3/T
     ------------------                 ------------------------

           IN:                                      IN:
           ---                                      ---
             STORAGE =      294166.6562               STORAGE =        1890.4456
       CONSTANT HEAD =           0.0000         CONSTANT HEAD =           0.0000
               WELLS =           0.0000                 WELLS =           0.0000
       RIVER LEAKAGE =           0.0000         RIVER LEAKAGE =           0.0000
            RECHARGE =     2987256.2500              RECHARGE =       33296.1602

            TOTAL IN =     3281423.0000              TOTAL IN =       35186.6055

          OUT:                                     OUT:
          ----                                     ----
             STORAGE =      705927.0000               STORAGE =        7729.9492
       CONSTANT HEAD =           0.0000         CONSTANT HEAD =           0.0000
               WELLS =       45850.4062                 WELLS =         509.4487
       RIVER LEAKAGE =     2529746.0000         RIVER LEAKAGE =       26948.6621
            RECHARGE =           0.0000              RECHARGE =           0.0000

           TOTAL OUT =     3281523.5000             TOTAL OUT =       35188.0586

            IN - OUT =        -100.5000              IN - OUT =          -1.4531

 PERCENT DISCREPANCY =          -0.00     PERCENT DISCREPANCY =          -0.00






         TIME SUMMARY AT END OF TIME STEP   89 IN STRESS PERIOD    2
                    SECONDS     MINUTES      HOURS       DAYS        YEARS
                    -----------------------------------------------------------
   TIME STEP LENGTH  86400.      1440.0      24.000      1.0000     2.73785E-03
 STRESS PERIOD TIME 7.68960E+06 1.28160E+05  2136.0      89.000     0.24367    
         TOTAL TIME 7.77600E+06 1.29600E+05  2160.0      90.000     0.24641    
1

 SOLVING FOR HEAD 

    ------------------------------------------------
       NWT REQUIRED            3 OUTER ITERATIONS 
       AND A TOTAL OF          3 INNER ITERATIONS.
    ------------------------------------------------

 OUTPUT CONTROL FOR STRESS PERIOD    2   TIME STEP   90
    SAVE HEAD FOR ALL LAYERS
    SAVE DRAWDOWN FOR ALL LAYERS
    SAVE BUDGET
    PRINT HEAD FOR ALL LAYERS
    PRINT BUDGET
1
              HEAD IN LAYER   1 AT END OF TIME STEP  90 IN STRESS PERIOD    2
  ---------------------------------------------------------------------------

            1           2           3           4           5           6           7           8           9          10
           11          12          13          14          15          16          17          18          19          20
 ........................................................................................................................
   1    0.000       0.000       0.000       0.000       0.000       10.59       10.45       10.88       11.57       11.50    
        10.26       7.385       2.267     -0.2147       5.894       21.64       31.99       37.53       0.000       0.000    
   2    0.000       0.000       0.000       0.000       8.398       7.979       7.184       7.874       9.368       9.649    
        8.780       6.603       2.628     -0.2510       8.474       23.39       33.69       39.59       0.000       0.000    
   3    0.000       0.000       0.000       6.367       6.045       4.120       3.278       3.865       5.296       5.847    
        5.496       4.452       2.849     -0.3888       14.24       26.17       37.13       43.85       0.000       0.000    
   4    0.000       0.000       3.654       3.968       2.788     -0.3616     -0.1309     -0.1846     -0.3641     -0.3179    
      -0.3189     -0.2843       1.425     -0.3988       19.17       32.44       42.18       50.81       0.000       0.000    
   5    0.000       0.000      0.6933      3.7311E-02 -0.5502     -4.0809E-02   5.035       8.363       11.52       12.19    
        10.03      8.2522E-02 -0.3475       1.252       26.19       39.73       53.44       64.51       75.43       0.000    
   6    0.000     -0.4756     -0.5331     -0.2969       2.471       10.84       16.14       19.79       22.40       23.95    
        23.70       21.64       23.05       28.24       41.04       53.49       67.85       72.93       77.89       0.000    
   7    0.000       9.853       11.44       13.29       16.41       21.43       25.83       29.23       31.26       34.25    
        35.86       37.11       40.11       45.66       54.94       65.18       74.23       80.28       0.000       0.000    
   8    0.000       16.08       20.38       23.02       26.04       29.83       33.60       36.96       39.81       42.73    
        45.33       48.11       52.01       57.61       65.07       73.25       80.74       88.83       0.000       0.000    
   9    0.000       0.000       28.14       29.81       32.38       35.58       38.98       42.29       45.42       48.54    
        51.68       55.18       59.52       65.05       71.74       79.07       86.51       94.48       102.3       107.2    
  10    0.000       0.000       31.89       33.24       35.55       38.49       41.72       44.99       48.21       51.46    
        54.84       58.63       63.15       68.63       75.02       82.02       89.24       96.48       102.8       106.5    

 HEAD WILL BE SAVED ON UNIT   51 AT END OF TIME STEP   90, STRESS PERIOD    2

 DRAWDOWN WILL BE SAVED ON UNIT   52 AT END OF TIME STEP   90, STRESS PERIOD    2
1
  VOLUMETRIC BUDGET FOR ENTIRE MODEL AT END OF TIME STEP   90, STRESS PERIOD   2
  ------------------------------------------------------------------------------

     CUMULATIVE VOLUMES      L**3       RATES FOR THIS TIME STEP      L**3/T
     ------------------                 ------------------------

           IN:                                      IN:
           ---                                      ---
             STORAGE =      296035.9062               STORAGE =        1869.2390
       CONSTANT HEAD =           0.0000         CONSTANT HEAD =           0.0000
               WELLS =           0.0000                 WELLS =           0.0000
       RIVER LEAKAGE =           0.0000         RIVER LEAKAGE =           0.0000
            RECHARGE =     3020552.5000              RECHARGE =       33296.1602

            TOTAL IN =     3316588.5000              TOTAL IN =       35165.3984

          OUT:                                     OUT:
          ----                                     ----
             STORAGE =      713653.1875               STORAGE =        7726.2095
       CONSTANT HEAD =           0.0000         CONSTANT HEAD =           0.0000
               WELLS =       46359.8555                 WELLS =         509.4487
       RIVER LEAKAGE =     2556677.2500         RIVER LEAKAGE =       26931.1992
            RECHARGE =           0.0000              RECHARGE =           0.0000

           TOTAL OUT =     3316690.2500             TOTAL OUT =       35166.8594

            IN - OUT =        -101.7500              IN - OUT =          -1.4609

 PERCENT DISCREPANCY =          -0.00     PERCENT DISCREPANCY =          -0.00






         TIME SUMMARY AT END OF TIME STEP   90 IN STRESS PERIOD    2
                    SECONDS     MINUTES      HOURS       DAYS        YEARS
                    -----------------------------------------------------------
   TIME STEP LENGTH  86400.      1440.0      24.000      1.0000     2.73785E-03
 STRESS PERIOD TIME 7.77600E+06 1.29600E+05  2160.0      90.000     0.24641    
         TOTAL TIME 7.86240E+06 1.31040E+05  2184.0      91.000     0.24914    
1

 SOLVING FOR HEAD 

    ------------------------------------------------
       NWT REQUIRED            3 OUTER ITERATIONS 
       AND A TOTAL OF          3 INNER ITERATIONS.
    ------------------------------------------------

 OUTPUT CONTROL FOR STRESS PERIOD    2   TIME STEP   91
    SAVE HEAD FOR ALL LAYERS
    SAVE DRAWDOWN FOR ALL LAYERS
    SAVE BUDGET
    PRINT HEAD FOR ALL LAYERS
    PRINT BUDGET
1
              HEAD IN LAYER   1 AT END OF TIME STEP  91 IN STRESS PERIOD    2
  ---------------------------------------------------------------------------

            1           2           3           4           5           6           7           8           9          10
           11          12          13          14          15          16          17          18          19          20
 ........................................................................................................................
   1    0.000       0.000       0.000       0.000       0.000       10.59       10.45       10.89       11.57       11.50    
        10.26       7.387       2.268     -0.2150       5.895       21.64       31.99       37.53       0.000       0.000    
   2    0.000       0.000       0.000       0.000       8.400       7.981       7.186       7.875       9.369       9.650    
        8.782       6.605       2.629     -0.2513       8.475       23.40       33.69       39.59       0.000       0.000    
   3    0.000       0.000       0.000       6.369       6.046       4.121       3.279       3.866       5.297       5.848    
        5.497       4.453       2.850     -0.3892       14.24       26.17       37.13       43.85       0.000       0.000    
   4    0.000       0.000       3.656       3.969       2.789     -0.3619     -0.1311     -0.1849     -0.3645     -0.3183    
      -0.3193     -0.2845       1.426     -0.3992       19.17       32.44       42.18       50.81       0.000       0.000    
   5    0.000       0.000      0.6938      3.7339E-02 -0.5506     -4.1053E-02   5.036       8.364       11.52       12.19    
        10.03      8.2529E-02 -0.3479       1.252       26.19       39.73       53.44       64.51       75.43       0.000    
   6    0.000     -0.4760     -0.5335     -0.2972       2.471       10.84       16.14       19.79       22.40       23.95    
        23.70       21.64       23.05       28.24       41.04       53.49       67.85       72.93       77.89       0.000    
   7    0.000       9.854       11.44       13.29       16.42       21.43       25.83       29.23       31.26       34.25    
        35.86       37.11       40.11       45.66       54.94       65.18       74.23       80.28       0.000       0.000    
   8    0.000       16.08       20.39       23.02       26.04       29.84       33.61       36.96       39.81       42.73    
        45.33       48.11       52.01       57.61       65.08       73.25       80.74       88.83       0.000       0.000    
   9    0.000       0.000       28.14       29.81       32.38       35.58       38.98       42.29       45.43       48.54    
        51.69       55.18       59.53       65.05       71.74       79.07       86.52       94.49       102.3       107.2    
  10    0.000       0.000       31.89       33.24       35.55       38.49       41.72       44.99       48.22       51.46    
        54.84       58.63       63.15       68.63       75.02       82.02       89.24       96.48       102.8       106.5    

 HEAD WILL BE SAVED ON UNIT   51 AT END OF TIME STEP   91, STRESS PERIOD    2

 DRAWDOWN WILL BE SAVED ON UNIT   52 AT END OF TIME STEP   91, STRESS PERIOD    2
1
  VOLUMETRIC BUDGET FOR ENTIRE MODEL AT END OF TIME STEP   91, STRESS PERIOD   2
  ------------------------------------------------------------------------------

     CUMULATIVE VOLUMES      L**3       RATES FOR THIS TIME STEP      L**3/T
     ------------------                 ------------------------

           IN:                                      IN:
           ---                                      ---
             STORAGE =      297884.1875               STORAGE =        1848.2747
       CONSTANT HEAD =           0.0000         CONSTANT HEAD =           0.0000
               WELLS =           0.0000                 WELLS =           0.0000
       RIVER LEAKAGE =           0.0000         RIVER LEAKAGE =           0.0000
            RECHARGE =     3053848.7500              RECHARGE =       33296.1602

            TOTAL IN =     3351733.0000              TOTAL IN =       35144.4336

          OUT:                                     OUT:
          ----                                     ----
             STORAGE =      721375.6875               STORAGE =        7722.4844
       CONSTANT HEAD =           0.0000         CONSTANT HEAD =           0.0000
               WELLS =       46869.3047                 WELLS =         509.4487
       RIVER LEAKAGE =     2583591.2500         RIVER LEAKAGE =       26913.9648
            RECHARGE =           0.0000              RECHARGE =           0.0000

           TOTAL OUT =     3351836.2500             TOTAL OUT =       35145.8984

            IN - OUT =        -103.2500              IN - OUT =          -1.4648

 PERCENT DISCREPANCY =          -0.00     PERCENT DISCREPANCY =          -0.00






         TIME SUMMARY AT END OF TIME STEP   91 IN STRESS PERIOD    2
                    SECONDS     MINUTES      HOURS       DAYS        YEARS
                    -----------------------------------------------------------
   TIME STEP LENGTH  86400.      1440.0      24.000      1.0000     2.73785E-03
 STRESS PERIOD TIME 7.86240E+06 1.31040E+05  2184.0      91.000     0.24914    
         TOTAL TIME 7.94880E+06 1.32480E+05  2208.0      92.000     0.25188    
1

 SOLVING FOR HEAD 

    ------------------------------------------------
       NWT REQUIRED            3 OUTER ITERATIONS 
       AND A TOTAL OF          3 INNER ITERATIONS.
    ------------------------------------------------

 OUTPUT CONTROL FOR STRESS PERIOD    2   TIME STEP   92
    SAVE HEAD FOR ALL LAYERS
    SAVE DRAWDOWN FOR ALL LAYERS
    SAVE BUDGET
    PRINT HEAD FOR ALL LAYERS
    PRINT BUDGET
1
              HEAD IN LAYER   1 AT END OF TIME STEP  92 IN STRESS PERIOD    2
  ---------------------------------------------------------------------------

            1           2           3           4           5           6           7           8           9          10
           11          12          13          14          15          16          17          18          19          20
 ........................................................................................................................
   1    0.000       0.000       0.000       0.000       0.000       10.60       10.45       10.89       11.57       11.50    
        10.26       7.388       2.269     -0.2152       5.896       21.64       31.99       37.53       0.000       0.000    
   2    0.000       0.000       0.000       0.000       8.401       7.982       7.187       7.877       9.371       9.652    
        8.783       6.606       2.630     -0.2517       8.476       23.40       33.69       39.59       0.000       0.000    
   3    0.000       0.000       0.000       6.370       6.048       4.122       3.280       3.867       5.299       5.849    
        5.499       4.455       2.852     -0.3896       14.24       26.17       37.13       43.85       0.000       0.000    
   4    0.000       0.000       3.657       3.970       2.790     -0.3622     -0.1314     -0.1852     -0.3648     -0.3187    
      -0.3196     -0.2848       1.427     -0.3996       19.17       32.44       42.18       50.81       0.000       0.000    
   5    0.000       0.000      0.6943      3.7368E-02 -0.5510     -4.1296E-02   5.036       8.365       11.52       12.19    
        10.04      8.2538E-02 -0.3483       1.252       26.20       39.73       53.44       64.51       75.44       0.000    
   6    0.000     -0.4764     -0.5339     -0.2976       2.471       10.84       16.14       19.79       22.41       23.95    
        23.70       21.64       23.05       28.24       41.04       53.49       67.85       72.93       77.89       0.000    
   7    0.000       9.855       11.44       13.29       16.42       21.43       25.83       29.23       31.26       34.25    
        35.86       37.12       40.11       45.66       54.94       65.19       74.23       80.28       0.000       0.000    
   8    0.000       16.08       20.39       23.02       26.04       29.84       33.61       36.96       39.81       42.73    
        45.33       48.11       52.01       57.61       65.08       73.25       80.74       88.83       0.000       0.000    
   9    0.000       0.000       28.14       29.81       32.38       35.58       38.99       42.29       45.43       48.55    
        51.69       55.18       59.53       65.05       71.74       79.07       86.52       94.49       102.3       107.2    
  10    0.000       0.000       31.89       33.24       35.55       38.49       41.72       44.99       48.22       51.46    
        54.85       58.63       63.15       68.63       75.03       82.02       89.24       96.48       102.8       106.5    

 HEAD WILL BE SAVED ON UNIT   51 AT END OF TIME STEP   92, STRESS PERIOD    2

 DRAWDOWN WILL BE SAVED ON UNIT   52 AT END OF TIME STEP   92, STRESS PERIOD    2
1
  VOLUMETRIC BUDGET FOR ENTIRE MODEL AT END OF TIME STEP   92, STRESS PERIOD   2
  ------------------------------------------------------------------------------

     CUMULATIVE VOLUMES      L**3       RATES FOR THIS TIME STEP      L**3/T
     ------------------                 ------------------------

           IN:                                      IN:
           ---                                      ---
             STORAGE =      299711.7500               STORAGE =        1827.5491
       CONSTANT HEAD =           0.0000         CONSTANT HEAD =           0.0000
               WELLS =           0.0000                 WELLS =           0.0000
       RIVER LEAKAGE =           0.0000         RIVER LEAKAGE =           0.0000
            RECHARGE =     3087145.0000              RECHARGE =       33296.1602

            TOTAL IN =     3386856.7500              TOTAL IN =       35123.7109

          OUT:                                     OUT:
          ----                                     ----
             STORAGE =      729094.4375               STORAGE =        7718.7734
       CONSTANT HEAD =           0.0000         CONSTANT HEAD =           0.0000
               WELLS =       47378.7539                 WELLS =         509.4487
       RIVER LEAKAGE =     2610488.2500         RIVER LEAKAGE =       26896.9531
            RECHARGE =           0.0000              RECHARGE =           0.0000

           TOTAL OUT =     3386961.5000             TOTAL OUT =       35125.1758

            IN - OUT =        -104.7500              IN - OUT =          -1.4648

 PERCENT DISCREPANCY =          -0.00     PERCENT DISCREPANCY =          -0.00






         TIME SUMMARY AT END OF TIME STEP   92 IN STRESS PERIOD    2
                    SECONDS     MINUTES      HOURS       DAYS        YEARS
                    -----------------------------------------------------------
   TIME STEP LENGTH  86400.      1440.0      24.000      1.0000     2.73785E-03
 STRESS PERIOD TIME 7.94880E+06 1.32480E+05  2208.0      92.000     0.25188    
         TOTAL TIME 8.03520E+06 1.33920E+05  2232.0      93.000     0.25462    
1

 SOLVING FOR HEAD 

    ------------------------------------------------
       NWT REQUIRED            3 OUTER ITERATIONS 
       AND A TOTAL OF          3 INNER ITERATIONS.
    ------------------------------------------------

 OUTPUT CONTROL FOR STRESS PERIOD    2   TIME STEP   93
    SAVE HEAD FOR ALL LAYERS
    SAVE DRAWDOWN FOR ALL LAYERS
    SAVE BUDGET
    PRINT HEAD FOR ALL LAYERS
    PRINT BUDGET
1
              HEAD IN LAYER   1 AT END OF TIME STEP  93 IN STRESS PERIOD    2
  ---------------------------------------------------------------------------

            1           2           3           4           5           6           7           8           9          10
           11          12          13          14          15          16          17          18          19          20
 ........................................................................................................................
   1    0.000       0.000       0.000       0.000       0.000       10.60       10.45       10.89       11.57       11.51    
        10.26       7.390       2.270     -0.2155       5.897       21.64       32.00       37.53       0.000       0.000    
   2    0.000       0.000       0.000       0.000       8.403       7.984       7.189       7.878       9.372       9.653    
        8.785       6.608       2.631     -0.2520       8.477       23.40       33.69       39.59       0.000       0.000    
   3    0.000       0.000       0.000       6.372       6.049       4.123       3.281       3.868       5.300       5.851    
        5.500       4.456       2.853     -0.3899       14.24       26.17       37.13       43.85       0.000       0.000    
   4    0.000       0.000       3.658       3.972       2.791     -0.3625     -0.1317     -0.1855     -0.3652     -0.3191    
      -0.3200     -0.2850       1.427     -0.4000       19.17       32.44       42.18       50.81       0.000       0.000    
   5    0.000       0.000      0.6947      3.7397E-02 -0.5514     -4.1537E-02   5.037       8.366       11.52       12.19    
        10.04      8.2548E-02 -0.3486       1.252       26.20       39.74       53.44       64.51       75.44       0.000    
   6    0.000     -0.4768     -0.5342     -0.2980       2.471       10.84       16.14       19.79       22.41       23.96    
        23.70       21.64       23.05       28.24       41.04       53.50       67.85       72.94       77.89       0.000    
   7    0.000       9.857       11.44       13.29       16.42       21.43       25.83       29.23       31.26       34.25    
        35.87       37.12       40.11       45.66       54.94       65.19       74.23       80.28       0.000       0.000    
   8    0.000       16.08       20.39       23.02       26.04       29.84       33.61       36.96       39.82       42.73    
        45.33       48.11       52.01       57.61       65.08       73.25       80.74       88.83       0.000       0.000    
   9    0.000       0.000       28.14       29.81       32.38       35.59       38.99       42.29       45.43       48.55    
        51.69       55.18       59.53       65.05       71.74       79.07       86.52       94.49       102.3       107.2    
  10    0.000       0.000       31.89       33.24       35.55       38.49       41.72       44.99       48.22       51.46    
        54.85       58.63       63.15       68.63       75.03       82.02       89.25       96.48       102.8       106.5    

 HEAD WILL BE SAVED ON UNIT   51 AT END OF TIME STEP   93, STRESS PERIOD    2

 DRAWDOWN WILL BE SAVED ON UNIT   52 AT END OF TIME STEP   93, STRESS PERIOD    2
1
  VOLUMETRIC BUDGET FOR ENTIRE MODEL AT END OF TIME STEP   93, STRESS PERIOD   2
  ------------------------------------------------------------------------------

     CUMULATIVE VOLUMES      L**3       RATES FOR THIS TIME STEP      L**3/T
     ------------------                 ------------------------

           IN:                                      IN:
           ---                                      ---
             STORAGE =      301518.8125               STORAGE =        1807.0594
       CONSTANT HEAD =           0.0000         CONSTANT HEAD =           0.0000
               WELLS =           0.0000                 WELLS =           0.0000
       RIVER LEAKAGE =           0.0000         RIVER LEAKAGE =           0.0000
            RECHARGE =     3120441.2500              RECHARGE =       33296.1602

            TOTAL IN =     3421960.0000              TOTAL IN =       35103.2188

          OUT:                                     OUT:
          ----                                     ----
             STORAGE =      736809.5000               STORAGE =        7715.0767
       CONSTANT HEAD =           0.0000         CONSTANT HEAD =           0.0000
               WELLS =       47888.2031                 WELLS =         509.4487
       RIVER LEAKAGE =     2637368.5000         RIVER LEAKAGE =       26880.1660
            RECHARGE =           0.0000              RECHARGE =           0.0000

           TOTAL OUT =     3422066.2500             TOTAL OUT =       35104.6914

            IN - OUT =        -106.2500              IN - OUT =          -1.4727

 PERCENT DISCREPANCY =          -0.00     PERCENT DISCREPANCY =          -0.00






         TIME SUMMARY AT END OF TIME STEP   93 IN STRESS PERIOD    2
                    SECONDS     MINUTES      HOURS       DAYS        YEARS
                    -----------------------------------------------------------
   TIME STEP LENGTH  86400.      1440.0      24.000      1.0000     2.73785E-03
 STRESS PERIOD TIME 8.03520E+06 1.33920E+05  2232.0      93.000     0.25462    
         TOTAL TIME 8.12160E+06 1.35360E+05  2256.0      94.000     0.25736    
1

 SOLVING FOR HEAD 

    ------------------------------------------------
       NWT REQUIRED            3 OUTER ITERATIONS 
       AND A TOTAL OF          3 INNER ITERATIONS.
    ------------------------------------------------

 OUTPUT CONTROL FOR STRESS PERIOD    2   TIME STEP   94
    SAVE HEAD FOR ALL LAYERS
    SAVE DRAWDOWN FOR ALL LAYERS
    SAVE BUDGET
    PRINT HEAD FOR ALL LAYERS
    PRINT BUDGET
1
              HEAD IN LAYER   1 AT END OF TIME STEP  94 IN STRESS PERIOD    2
  ---------------------------------------------------------------------------

            1           2           3           4           5           6           7           8           9          10
           11          12          13          14          15          16          17          18          19          20
 ........................................................................................................................
   1    0.000       0.000       0.000       0.000       0.000       10.60       10.45       10.89       11.57       11.51    
        10.26       7.391       2.271     -0.2158       5.898       21.65       32.00       37.54       0.000       0.000    
   2    0.000       0.000       0.000       0.000       8.404       7.985       7.190       7.879       9.374       9.655    
        8.786       6.609       2.632     -0.2523       8.478       23.40       33.69       39.59       0.000       0.000    
   3    0.000       0.000       0.000       6.373       6.051       4.124       3.282       3.869       5.301       5.852    
        5.501       4.457       2.854     -0.3903       14.24       26.17       37.13       43.85       0.000       0.000    
   4    0.000       0.000       3.660       3.973       2.792     -0.3629     -0.1319     -0.1858     -0.3656     -0.3194    
      -0.3203     -0.2852       1.428     -0.4003       19.17       32.44       42.19       50.81       0.000       0.000    
   5    0.000       0.000      0.6952      3.7428E-02 -0.5518     -4.1776E-02   5.038       8.368       11.52       12.19    
        10.04      8.2560E-02 -0.3490       1.252       26.20       39.74       53.45       64.51       75.44       0.000    
   6    0.000     -0.4772     -0.5346     -0.2983       2.471       10.84       16.14       19.80       22.41       23.96    
        23.70       21.64       23.05       28.24       41.05       53.50       67.85       72.94       77.89       0.000    
   7    0.000       9.858       11.44       13.29       16.42       21.43       25.84       29.23       31.26       34.25    
        35.87       37.12       40.11       45.66       54.94       65.19       74.23       80.28       0.000       0.000    
   8    0.000       16.08       20.39       23.02       26.05       29.84       33.61       36.96       39.82       42.74    
        45.34       48.11       52.02       57.61       65.08       73.25       80.75       88.84       0.000       0.000    
   9    0.000       0.000       28.14       29.82       32.38       35.59       38.99       42.30       45.43       48.55    
        51.69       55.19       59.53       65.05       71.74       79.08       86.52       94.49       102.3       107.2    
  10    0.000       0.000       31.90       33.25       35.55       38.50       41.72       45.00       48.22       51.47    
        54.85       58.63       63.16       68.63       75.03       82.02       89.25       96.48       102.9       106.5    

 HEAD WILL BE SAVED ON UNIT   51 AT END OF TIME STEP   94, STRESS PERIOD    2

 DRAWDOWN WILL BE SAVED ON UNIT   52 AT END OF TIME STEP   94, STRESS PERIOD    2
1
  VOLUMETRIC BUDGET FOR ENTIRE MODEL AT END OF TIME STEP   94, STRESS PERIOD   2
  ------------------------------------------------------------------------------

     CUMULATIVE VOLUMES      L**3       RATES FOR THIS TIME STEP      L**3/T
     ------------------                 ------------------------

           IN:                                      IN:
           ---                                      ---
             STORAGE =      303305.6250               STORAGE =        1786.8027
       CONSTANT HEAD =           0.0000         CONSTANT HEAD =           0.0000
               WELLS =           0.0000                 WELLS =           0.0000
       RIVER LEAKAGE =           0.0000         RIVER LEAKAGE =           0.0000
            RECHARGE =     3153737.5000              RECHARGE =       33296.1602

            TOTAL IN =     3457043.0000              TOTAL IN =       35082.9609

          OUT:                                     OUT:
          ----                                     ----
             STORAGE =      744520.8750               STORAGE =        7711.3940
       CONSTANT HEAD =           0.0000         CONSTANT HEAD =           0.0000
               WELLS =       48397.6523                 WELLS =         509.4487
       RIVER LEAKAGE =     2664232.0000         RIVER LEAKAGE =       26863.5957
            RECHARGE =           0.0000              RECHARGE =           0.0000

           TOTAL OUT =     3457150.5000             TOTAL OUT =       35084.4375

            IN - OUT =        -107.5000              IN - OUT =          -1.4766

 PERCENT DISCREPANCY =          -0.00     PERCENT DISCREPANCY =          -0.00






         TIME SUMMARY AT END OF TIME STEP   94 IN STRESS PERIOD    2
                    SECONDS     MINUTES      HOURS       DAYS        YEARS
                    -----------------------------------------------------------
   TIME STEP LENGTH  86400.      1440.0      24.000      1.0000     2.73785E-03
 STRESS PERIOD TIME 8.12160E+06 1.35360E+05  2256.0      94.000     0.25736    
         TOTAL TIME 8.20800E+06 1.36800E+05  2280.0      95.000     0.26010    
1

 SOLVING FOR HEAD 

    ------------------------------------------------
       NWT REQUIRED            3 OUTER ITERATIONS 
       AND A TOTAL OF          3 INNER ITERATIONS.
    ------------------------------------------------

 OUTPUT CONTROL FOR STRESS PERIOD    2   TIME STEP   95
    SAVE HEAD FOR ALL LAYERS
    SAVE DRAWDOWN FOR ALL LAYERS
    SAVE BUDGET
    PRINT HEAD FOR ALL LAYERS
    PRINT BUDGET
1
              HEAD IN LAYER   1 AT END OF TIME STEP  95 IN STRESS PERIOD    2
  ---------------------------------------------------------------------------

            1           2           3           4           5           6           7           8           9          10
           11          12          13          14          15          16          17          18          19          20
 ........................................................................................................................
   1    0.000       0.000       0.000       0.000       0.000       10.60       10.45       10.89       11.57       11.51    
        10.26       7.393       2.272     -0.2160       5.899       21.65       32.00       37.54       0.000       0.000    
   2    0.000       0.000       0.000       0.000       8.406       7.987       7.192       7.881       9.375       9.656    
        8.788       6.611       2.633     -0.2526       8.479       23.40       33.69       39.59       0.000       0.000    
   3    0.000       0.000       0.000       6.375       6.052       4.125       3.283       3.870       5.303       5.853    
        5.503       4.459       2.856     -0.3907       14.24       26.17       37.14       43.85       0.000       0.000    
   4    0.000       0.000       3.661       3.974       2.793     -0.3632     -0.1322     -0.1861     -0.3659     -0.3198    
      -0.3207     -0.2854       1.429     -0.4007       19.17       32.45       42.19       50.82       0.000       0.000    
   5    0.000       0.000      0.6957      3.7460E-02 -0.5521     -4.2014E-02   5.039       8.369       11.52       12.20    
        10.04      8.2574E-02 -0.3493       1.252       26.20       39.74       53.45       64.52       75.44       0.000    
   6    0.000     -0.4776     -0.5349     -0.2987       2.472       10.85       16.15       19.80       22.41       23.96    
        23.70       21.64       23.05       28.24       41.05       53.50       67.86       72.94       77.89       0.000    
   7    0.000       9.859       11.44       13.29       16.42       21.44       25.84       29.23       31.26       34.25    
        35.87       37.12       40.11       45.66       54.94       65.19       74.23       80.29       0.000       0.000    
   8    0.000       16.08       20.39       23.03       26.05       29.84       33.61       36.97       39.82       42.74    
        45.34       48.11       52.02       57.61       65.08       73.25       80.75       88.84       0.000       0.000    
   9    0.000       0.000       28.14       29.82       32.38       35.59       38.99       42.30       45.43       48.55    
        51.69       55.19       59.53       65.05       71.74       79.08       86.52       94.49       102.3       107.2    
  10    0.000       0.000       31.90       33.25       35.56       38.50       41.73       45.00       48.22       51.47    
        54.85       58.64       63.16       68.64       75.03       82.02       89.25       96.48       102.9       106.6    

 HEAD WILL BE SAVED ON UNIT   51 AT END OF TIME STEP   95, STRESS PERIOD    2

 DRAWDOWN WILL BE SAVED ON UNIT   52 AT END OF TIME STEP   95, STRESS PERIOD    2
1
  VOLUMETRIC BUDGET FOR ENTIRE MODEL AT END OF TIME STEP   95, STRESS PERIOD   2
  ------------------------------------------------------------------------------

     CUMULATIVE VOLUMES      L**3       RATES FOR THIS TIME STEP      L**3/T
     ------------------                 ------------------------

           IN:                                      IN:
           ---                                      ---
             STORAGE =      305072.4062               STORAGE =        1766.7759
       CONSTANT HEAD =           0.0000         CONSTANT HEAD =           0.0000
               WELLS =           0.0000                 WELLS =           0.0000
       RIVER LEAKAGE =           0.0000         RIVER LEAKAGE =           0.0000
            RECHARGE =     3187033.7500              RECHARGE =       33296.1602

            TOTAL IN =     3492106.2500              TOTAL IN =       35062.9375

          OUT:                                     OUT:
          ----                                     ----
             STORAGE =      752228.6250               STORAGE =        7707.7256
       CONSTANT HEAD =           0.0000         CONSTANT HEAD =           0.0000
               WELLS =       48907.1016                 WELLS =         509.4487
       RIVER LEAKAGE =     2691079.2500         RIVER LEAKAGE =       26847.2402
            RECHARGE =           0.0000              RECHARGE =           0.0000

           TOTAL OUT =     3492215.0000             TOTAL OUT =       35064.4141

            IN - OUT =        -108.7500              IN - OUT =          -1.4766

 PERCENT DISCREPANCY =          -0.00     PERCENT DISCREPANCY =          -0.00






         TIME SUMMARY AT END OF TIME STEP   95 IN STRESS PERIOD    2
                    SECONDS     MINUTES      HOURS       DAYS        YEARS
                    -----------------------------------------------------------
   TIME STEP LENGTH  86400.      1440.0      24.000      1.0000     2.73785E-03
 STRESS PERIOD TIME 8.20800E+06 1.36800E+05  2280.0      95.000     0.26010    
         TOTAL TIME 8.29440E+06 1.38240E+05  2304.0      96.000     0.26283    
1

 SOLVING FOR HEAD 

    ------------------------------------------------
       NWT REQUIRED            3 OUTER ITERATIONS 
       AND A TOTAL OF          3 INNER ITERATIONS.
    ------------------------------------------------

 OUTPUT CONTROL FOR STRESS PERIOD    2   TIME STEP   96
    SAVE HEAD FOR ALL LAYERS
    SAVE DRAWDOWN FOR ALL LAYERS
    SAVE BUDGET
    PRINT HEAD FOR ALL LAYERS
    PRINT BUDGET
1
              HEAD IN LAYER   1 AT END OF TIME STEP  96 IN STRESS PERIOD    2
  ---------------------------------------------------------------------------

            1           2           3           4           5           6           7           8           9          10
           11          12          13          14          15          16          17          18          19          20
 ........................................................................................................................
   1    0.000       0.000       0.000       0.000       0.000       10.60       10.46       10.89       11.58       11.51    
        10.26       7.394       2.273     -0.2163       5.900       21.65       32.00       37.54       0.000       0.000    
   2    0.000       0.000       0.000       0.000       8.408       7.988       7.193       7.882       9.377       9.658    
        8.789       6.612       2.634     -0.2529       8.480       23.40       33.70       39.60       0.000       0.000    
   3    0.000       0.000       0.000       6.376       6.054       4.126       3.284       3.871       5.304       5.855    
        5.504       4.460       2.857     -0.3910       14.24       26.17       37.14       43.86       0.000       0.000    
   4    0.000       0.000       3.663       3.976       2.794     -0.3635     -0.1324     -0.1865     -0.3663     -0.3201    
      -0.3210     -0.2856       1.430     -0.4011       19.17       32.45       42.19       50.82       0.000       0.000    
   5    0.000       0.000      0.6962      3.7493E-02 -0.5525     -4.2249E-02   5.040       8.370       11.52       12.20    
        10.04      8.2589E-02 -0.3497       1.252       26.20       39.74       53.45       64.52       75.44       0.000    
   6    0.000     -0.4779     -0.5353     -0.2990       2.472       10.85       16.15       19.80       22.41       23.96    
        23.71       21.64       23.06       28.24       41.05       53.50       67.86       72.94       77.90       0.000    
   7    0.000       9.860       11.44       13.30       16.42       21.44       25.84       29.24       31.26       34.26    
        35.87       37.12       40.12       45.66       54.94       65.19       74.24       80.29       0.000       0.000    
   8    0.000       16.09       20.39       23.03       26.05       29.84       33.61       36.97       39.82       42.74    
        45.34       48.12       52.02       57.61       65.08       73.26       80.75       88.84       0.000       0.000    
   9    0.000       0.000       28.15       29.82       32.39       35.59       38.99       42.30       45.43       48.55    
        51.69       55.19       59.53       65.05       71.75       79.08       86.52       94.49       102.3       107.2    
  10    0.000       0.000       31.90       33.25       35.56       38.50       41.73       45.00       48.22       51.47    
        54.85       58.64       63.16       68.64       75.03       82.03       89.25       96.49       102.9       106.6    

 HEAD WILL BE SAVED ON UNIT   51 AT END OF TIME STEP   96, STRESS PERIOD    2

 DRAWDOWN WILL BE SAVED ON UNIT   52 AT END OF TIME STEP   96, STRESS PERIOD    2
1
  VOLUMETRIC BUDGET FOR ENTIRE MODEL AT END OF TIME STEP   96, STRESS PERIOD   2
  ------------------------------------------------------------------------------

     CUMULATIVE VOLUMES      L**3       RATES FOR THIS TIME STEP      L**3/T
     ------------------                 ------------------------

           IN:                                      IN:
           ---                                      ---
             STORAGE =      306819.3750               STORAGE =        1746.9763
       CONSTANT HEAD =           0.0000         CONSTANT HEAD =           0.0000
               WELLS =           0.0000                 WELLS =           0.0000
       RIVER LEAKAGE =           0.0000         RIVER LEAKAGE =           0.0000
            RECHARGE =     3220330.0000              RECHARGE =       33296.1602

            TOTAL IN =     3527149.5000              TOTAL IN =       35043.1367

          OUT:                                     OUT:
          ----                                     ----
             STORAGE =      759932.6875               STORAGE =        7704.0713
       CONSTANT HEAD =           0.0000         CONSTANT HEAD =           0.0000
               WELLS =       49416.5508                 WELLS =         509.4487
       RIVER LEAKAGE =     2717910.2500         RIVER LEAKAGE =       26831.0996
            RECHARGE =           0.0000              RECHARGE =           0.0000

           TOTAL OUT =     3527259.5000             TOTAL OUT =       35044.6172

            IN - OUT =        -110.0000              IN - OUT =          -1.4805

 PERCENT DISCREPANCY =          -0.00     PERCENT DISCREPANCY =          -0.00






         TIME SUMMARY AT END OF TIME STEP   96 IN STRESS PERIOD    2
                    SECONDS     MINUTES      HOURS       DAYS        YEARS
                    -----------------------------------------------------------
   TIME STEP LENGTH  86400.      1440.0      24.000      1.0000     2.73785E-03
 STRESS PERIOD TIME 8.29440E+06 1.38240E+05  2304.0      96.000     0.26283    
         TOTAL TIME 8.38080E+06 1.39680E+05  2328.0      97.000     0.26557    
1

 SOLVING FOR HEAD 

    ------------------------------------------------
       NWT REQUIRED            3 OUTER ITERATIONS 
       AND A TOTAL OF          3 INNER ITERATIONS.
    ------------------------------------------------

 OUTPUT CONTROL FOR STRESS PERIOD    2   TIME STEP   97
    SAVE HEAD FOR ALL LAYERS
    SAVE DRAWDOWN FOR ALL LAYERS
    SAVE BUDGET
    PRINT HEAD FOR ALL LAYERS
    PRINT BUDGET
1
              HEAD IN LAYER   1 AT END OF TIME STEP  97 IN STRESS PERIOD    2
  ---------------------------------------------------------------------------

            1           2           3           4           5           6           7           8           9          10
           11          12          13          14          15          16          17          18          19          20
 ........................................................................................................................
   1    0.000       0.000       0.000       0.000       0.000       10.60       10.46       10.89       11.58       11.51    
        10.27       7.396       2.274     -0.2165       5.900       21.65       32.00       37.54       0.000       0.000    
   2    0.000       0.000       0.000       0.000       8.409       7.990       7.195       7.884       9.379       9.659    
        8.791       6.614       2.635     -0.2533       8.481       23.40       33.70       39.60       0.000       0.000    
   3    0.000       0.000       0.000       6.378       6.055       4.127       3.285       3.872       5.305       5.856    
        5.505       4.461       2.858     -0.3914       14.25       26.18       37.14       43.86       0.000       0.000    
   4    0.000       0.000       3.664       3.977       2.795     -0.3638     -0.1327     -0.1868     -0.3667     -0.3205    
      -0.3214     -0.2858       1.431     -0.4014       19.18       32.45       42.19       50.82       0.000       0.000    
   5    0.000       0.000      0.6966      3.7526E-02 -0.5529     -4.2483E-02   5.041       8.371       11.52       12.20    
        10.04      8.2606E-02 -0.3500       1.252       26.20       39.74       53.45       64.52       75.44       0.000    
   6    0.000     -0.4783     -0.5356     -0.2994       2.472       10.85       16.15       19.80       22.41       23.96    
        23.71       21.64       23.06       28.25       41.05       53.50       67.86       72.94       77.90       0.000    
   7    0.000       9.862       11.44       13.30       16.42       21.44       25.84       29.24       31.27       34.26    
        35.87       37.12       40.12       45.67       54.95       65.19       74.24       80.29       0.000       0.000    
   8    0.000       16.09       20.39       23.03       26.05       29.85       33.62       36.97       39.82       42.74    
        45.34       48.12       52.02       57.62       65.08       73.26       80.75       88.84       0.000       0.000    
   9    0.000       0.000       28.15       29.82       32.39       35.59       38.99       42.30       45.43       48.55    
        51.70       55.19       59.54       65.06       71.75       79.08       86.52       94.49       102.3       107.2    
  10    0.000       0.000       31.90       33.25       35.56       38.50       41.73       45.00       48.23       51.47    
        54.85       58.64       63.16       68.64       75.03       82.03       89.25       96.49       102.9       106.6    

 HEAD WILL BE SAVED ON UNIT   51 AT END OF TIME STEP   97, STRESS PERIOD    2

 DRAWDOWN WILL BE SAVED ON UNIT   52 AT END OF TIME STEP   97, STRESS PERIOD    2
1
  VOLUMETRIC BUDGET FOR ENTIRE MODEL AT END OF TIME STEP   97, STRESS PERIOD   2
  ------------------------------------------------------------------------------

     CUMULATIVE VOLUMES      L**3       RATES FOR THIS TIME STEP      L**3/T
     ------------------                 ------------------------

           IN:                                      IN:
           ---                                      ---
             STORAGE =      308546.7812               STORAGE =        1727.4006
       CONSTANT HEAD =           0.0000         CONSTANT HEAD =           0.0000
               WELLS =           0.0000                 WELLS =           0.0000
       RIVER LEAKAGE =           0.0000         RIVER LEAKAGE =           0.0000
            RECHARGE =     3253626.2500              RECHARGE =       33296.1602

            TOTAL IN =     3562173.0000              TOTAL IN =       35023.5625

          OUT:                                     OUT:
          ----                                     ----
             STORAGE =      767633.1250               STORAGE =        7700.4312
       CONSTANT HEAD =           0.0000         CONSTANT HEAD =           0.0000
               WELLS =       49926.0000                 WELLS =         509.4487
       RIVER LEAKAGE =     2744725.5000         RIVER LEAKAGE =       26815.1680
            RECHARGE =           0.0000              RECHARGE =           0.0000

           TOTAL OUT =     3562284.5000             TOTAL OUT =       35025.0469

            IN - OUT =        -111.5000              IN - OUT =          -1.4844

 PERCENT DISCREPANCY =          -0.00     PERCENT DISCREPANCY =          -0.00






         TIME SUMMARY AT END OF TIME STEP   97 IN STRESS PERIOD    2
                    SECONDS     MINUTES      HOURS       DAYS        YEARS
                    -----------------------------------------------------------
   TIME STEP LENGTH  86400.      1440.0      24.000      1.0000     2.73785E-03
 STRESS PERIOD TIME 8.38080E+06 1.39680E+05  2328.0      97.000     0.26557    
         TOTAL TIME 8.46720E+06 1.41120E+05  2352.0      98.000     0.26831    
1

 SOLVING FOR HEAD 

    ------------------------------------------------
       NWT REQUIRED            3 OUTER ITERATIONS 
       AND A TOTAL OF          3 INNER ITERATIONS.
    ------------------------------------------------

 OUTPUT CONTROL FOR STRESS PERIOD    2   TIME STEP   98
    SAVE HEAD FOR ALL LAYERS
    SAVE DRAWDOWN FOR ALL LAYERS
    SAVE BUDGET
    PRINT HEAD FOR ALL LAYERS
    PRINT BUDGET
1
              HEAD IN LAYER   1 AT END OF TIME STEP  98 IN STRESS PERIOD    2
  ---------------------------------------------------------------------------

            1           2           3           4           5           6           7           8           9          10
           11          12          13          14          15          16          17          18          19          20
 ........................................................................................................................
   1    0.000       0.000       0.000       0.000       0.000       10.61       10.46       10.90       11.58       11.51    
        10.27       7.397       2.274     -0.2168       5.901       21.65       32.00       37.54       0.000       0.000    
   2    0.000       0.000       0.000       0.000       8.411       7.991       7.196       7.885       9.380       9.661    
        8.792       6.615       2.636     -0.2536       8.482       23.41       33.70       39.60       0.000       0.000    
   3    0.000       0.000       0.000       6.380       6.057       4.128       3.286       3.873       5.306       5.857    
        5.506       4.463       2.859     -0.3917       14.25       26.18       37.14       43.86       0.000       0.000    
   4    0.000       0.000       3.666       3.978       2.796     -0.3641     -0.1330     -0.1871     -0.3670     -0.3208    
      -0.3217     -0.2860       1.432     -0.4018       19.18       32.45       42.19       50.82       0.000       0.000    
   5    0.000       0.000      0.6971      3.7561E-02 -0.5532     -4.2716E-02   5.042       8.372       11.53       12.20    
        10.04      8.2624E-02 -0.3504       1.252       26.20       39.74       53.45       64.52       75.44       0.000    
   6    0.000     -0.4787     -0.5359     -0.2997       2.472       10.85       16.15       19.80       22.41       23.96    
        23.71       21.65       23.06       28.25       41.05       53.50       67.86       72.94       77.90       0.000    
   7    0.000       9.863       11.45       13.30       16.43       21.44       25.84       29.24       31.27       34.26    
        35.87       37.12       40.12       45.67       54.95       65.20       74.24       80.29       0.000       0.000    
   8    0.000       16.09       20.40       23.03       26.05       29.85       33.62       36.97       39.82       42.74    
        45.34       48.12       52.02       57.62       65.09       73.26       80.75       88.84       0.000       0.000    
   9    0.000       0.000       28.15       29.82       32.39       35.59       39.00       42.30       45.44       48.55    
        51.70       55.19       59.54       65.06       71.75       79.08       86.53       94.50       102.3       107.2    
  10    0.000       0.000       31.90       33.25       35.56       38.50       41.73       45.00       48.23       51.47    
        54.86       58.64       63.16       68.64       75.04       82.03       89.25       96.49       102.9       106.6    

 HEAD WILL BE SAVED ON UNIT   51 AT END OF TIME STEP   98, STRESS PERIOD    2

 DRAWDOWN WILL BE SAVED ON UNIT   52 AT END OF TIME STEP   98, STRESS PERIOD    2
1
  VOLUMETRIC BUDGET FOR ENTIRE MODEL AT END OF TIME STEP   98, STRESS PERIOD   2
  ------------------------------------------------------------------------------

     CUMULATIVE VOLUMES      L**3       RATES FOR THIS TIME STEP      L**3/T
     ------------------                 ------------------------

           IN:                                      IN:
           ---                                      ---
             STORAGE =      310254.8125               STORAGE =        1708.0465
       CONSTANT HEAD =           0.0000         CONSTANT HEAD =           0.0000
               WELLS =           0.0000                 WELLS =           0.0000
       RIVER LEAKAGE =           0.0000         RIVER LEAKAGE =           0.0000
            RECHARGE =     3286922.5000              RECHARGE =       33296.1602

            TOTAL IN =     3597177.2500              TOTAL IN =       35004.2070

          OUT:                                     OUT:
          ----                                     ----
             STORAGE =      775329.9375               STORAGE =        7696.8052
       CONSTANT HEAD =           0.0000         CONSTANT HEAD =           0.0000
               WELLS =       50435.4492                 WELLS =         509.4487
       RIVER LEAKAGE =     2771525.0000         RIVER LEAKAGE =       26799.4434
            RECHARGE =           0.0000              RECHARGE =           0.0000

           TOTAL OUT =     3597290.5000             TOTAL OUT =       35005.6953

            IN - OUT =        -113.2500              IN - OUT =          -1.4883

 PERCENT DISCREPANCY =          -0.00     PERCENT DISCREPANCY =          -0.00






         TIME SUMMARY AT END OF TIME STEP   98 IN STRESS PERIOD    2
                    SECONDS     MINUTES      HOURS       DAYS        YEARS
                    -----------------------------------------------------------
   TIME STEP LENGTH  86400.      1440.0      24.000      1.0000     2.73785E-03
 STRESS PERIOD TIME 8.46720E+06 1.41120E+05  2352.0      98.000     0.26831    
         TOTAL TIME 8.55360E+06 1.42560E+05  2376.0      99.000     0.27105    
1

 SOLVING FOR HEAD 

    ------------------------------------------------
       NWT REQUIRED            3 OUTER ITERATIONS 
       AND A TOTAL OF          3 INNER ITERATIONS.
    ------------------------------------------------

 OUTPUT CONTROL FOR STRESS PERIOD    2   TIME STEP   99
    SAVE HEAD FOR ALL LAYERS
    SAVE DRAWDOWN FOR ALL LAYERS
    SAVE BUDGET
    PRINT HEAD FOR ALL LAYERS
    PRINT BUDGET
1
              HEAD IN LAYER   1 AT END OF TIME STEP  99 IN STRESS PERIOD    2
  ---------------------------------------------------------------------------

            1           2           3           4           5           6           7           8           9          10
           11          12          13          14          15          16          17          18          19          20
 ........................................................................................................................
   1    0.000       0.000       0.000       0.000       0.000       10.61       10.46       10.90       11.58       11.52    
        10.27       7.399       2.275     -0.2171       5.902       21.65       32.00       37.54       0.000       0.000    
   2    0.000       0.000       0.000       0.000       8.412       7.993       7.197       7.887       9.382       9.662    
        8.794       6.617       2.637     -0.2539       8.483       23.41       33.70       39.60       0.000       0.000    
   3    0.000       0.000       0.000       6.381       6.058       4.129       3.286       3.874       5.308       5.859    
        5.508       4.464       2.861     -0.3921       14.25       26.18       37.14       43.86       0.000       0.000    
   4    0.000       0.000       3.667       3.980       2.797     -0.3644     -0.1332     -0.1874     -0.3673     -0.3212    
      -0.3220     -0.2861       1.433     -0.4021       19.18       32.45       42.19       50.82       0.000       0.000    
   5    0.000       0.000      0.6976      3.7597E-02 -0.5536     -4.2946E-02   5.043       8.373       11.53       12.20    
        10.04      8.2643E-02 -0.3507       1.252       26.21       39.74       53.45       64.52       75.45       0.000    
   6    0.000     -0.4791     -0.5362     -0.3001       2.473       10.85       16.15       19.80       22.42       23.97    
        23.71       21.65       23.06       28.25       41.05       53.50       67.86       72.95       77.90       0.000    
   7    0.000       9.864       11.45       13.30       16.43       21.44       25.84       29.24       31.27       34.26    
        35.88       37.13       40.12       45.67       54.95       65.20       74.24       80.29       0.000       0.000    
   8    0.000       16.09       20.40       23.03       26.05       29.85       33.62       36.97       39.83       42.74    
        45.34       48.12       52.02       57.62       65.09       73.26       80.75       88.84       0.000       0.000    
   9    0.000       0.000       28.15       29.82       32.39       35.59       39.00       42.30       45.44       48.56    
        51.70       55.19       59.54       65.06       71.75       79.08       86.53       94.50       102.3       107.2    
  10    0.000       0.000       31.90       33.25       35.56       38.50       41.73       45.00       48.23       51.47    
        54.86       58.64       63.16       68.64       75.04       82.03       89.25       96.49       102.9       106.6    

 HEAD WILL BE SAVED ON UNIT   51 AT END OF TIME STEP   99, STRESS PERIOD    2

 DRAWDOWN WILL BE SAVED ON UNIT   52 AT END OF TIME STEP   99, STRESS PERIOD    2
1
  VOLUMETRIC BUDGET FOR ENTIRE MODEL AT END OF TIME STEP   99, STRESS PERIOD   2
  ------------------------------------------------------------------------------

     CUMULATIVE VOLUMES      L**3       RATES FOR THIS TIME STEP      L**3/T
     ------------------                 ------------------------

           IN:                                      IN:
           ---                                      ---
             STORAGE =      311943.7188               STORAGE =        1688.9110
       CONSTANT HEAD =           0.0000         CONSTANT HEAD =           0.0000
               WELLS =           0.0000                 WELLS =           0.0000
       RIVER LEAKAGE =           0.0000         RIVER LEAKAGE =           0.0000
            RECHARGE =     3320218.7500              RECHARGE =       33296.1602

            TOTAL IN =     3632162.5000              TOTAL IN =       34985.0703

          OUT:                                     OUT:
          ----                                     ----
             STORAGE =      783023.1250               STORAGE =        7693.1938
       CONSTANT HEAD =           0.0000         CONSTANT HEAD =           0.0000
               WELLS =       50944.8984                 WELLS =         509.4487
       RIVER LEAKAGE =     2798309.0000         RIVER LEAKAGE =       26783.9238
            RECHARGE =           0.0000              RECHARGE =           0.0000

           TOTAL OUT =     3632277.0000             TOTAL OUT =       34986.5664

            IN - OUT =        -114.5000              IN - OUT =          -1.4961

 PERCENT DISCREPANCY =          -0.00     PERCENT DISCREPANCY =          -0.00






         TIME SUMMARY AT END OF TIME STEP   99 IN STRESS PERIOD    2
                    SECONDS     MINUTES      HOURS       DAYS        YEARS
                    -----------------------------------------------------------
   TIME STEP LENGTH  86400.      1440.0      24.000      1.0000     2.73785E-03
 STRESS PERIOD TIME 8.55360E+06 1.42560E+05  2376.0      99.000     0.27105    
         TOTAL TIME 8.64000E+06 1.44000E+05  2400.0      100.00     0.27379    
1

 SOLVING FOR HEAD 

    ------------------------------------------------
       NWT REQUIRED            3 OUTER ITERATIONS 
       AND A TOTAL OF          3 INNER ITERATIONS.
    ------------------------------------------------

 OUTPUT CONTROL FOR STRESS PERIOD    2   TIME STEP  100
    SAVE HEAD FOR ALL LAYERS
    SAVE DRAWDOWN FOR ALL LAYERS
    SAVE BUDGET
    PRINT HEAD FOR ALL LAYERS
    PRINT BUDGET
1
              HEAD IN LAYER   1 AT END OF TIME STEP 100 IN STRESS PERIOD    2
  ---------------------------------------------------------------------------

            1           2           3           4           5           6           7           8           9          10
           11          12          13          14          15          16          17          18          19          20
 ........................................................................................................................
   1    0.000       0.000       0.000       0.000       0.000       10.61       10.46       10.90       11.58       11.52    
        10.27       7.400       2.276     -0.2173       5.903       21.65       32.01       37.54       0.000       0.000    
   2    0.000       0.000       0.000       0.000       8.414       7.994       7.199       7.888       9.383       9.664    
        8.795       6.618       2.638     -0.2542       8.484       23.41       33.70       39.60       0.000       0.000    
   3    0.000       0.000       0.000       6.383       6.060       4.131       3.287       3.875       5.309       5.860    
        5.509       4.465       2.862     -0.3924       14.25       26.18       37.14       43.86       0.000       0.000    
   4    0.000       0.000       3.668       3.981       2.798     -0.3647     -0.1335     -0.1877     -0.3677     -0.3215    
      -0.3224     -0.2863       1.434     -0.4025       19.18       32.45       42.19       50.82       0.000       0.000    
   5    0.000       0.000      0.6981      3.7633E-02 -0.5539     -4.3175E-02   5.044       8.374       11.53       12.20    
        10.04      8.2663E-02 -0.3510       1.252       26.21       39.75       53.46       64.52       75.45       0.000    
   6    0.000     -0.4794     -0.5365     -0.3004       2.473       10.85       16.15       19.81       22.42       23.97    
        23.71       21.65       23.06       28.25       41.06       53.51       67.86       72.95       77.90       0.000    
   7    0.000       9.865       11.45       13.30       16.43       21.44       25.85       29.24       31.27       34.26    
        35.88       37.13       40.12       45.67       54.95       65.20       74.24       80.29       0.000       0.000    
   8    0.000       16.09       20.40       23.03       26.05       29.85       33.62       36.97       39.83       42.74    
        45.35       48.12       52.03       57.62       65.09       73.26       80.76       88.85       0.000       0.000    
   9    0.000       0.000       28.15       29.82       32.39       35.60       39.00       42.31       45.44       48.56    
        51.70       55.19       59.54       65.06       71.75       79.08       86.53       94.50       102.3       107.2    
  10    0.000       0.000       31.90       33.26       35.56       38.50       41.73       45.00       48.23       51.48    
        54.86       58.64       63.17       68.64       75.04       82.03       89.26       96.49       102.9       106.6    

 HEAD WILL BE SAVED ON UNIT   51 AT END OF TIME STEP  100, STRESS PERIOD    2

 DRAWDOWN WILL BE SAVED ON UNIT   52 AT END OF TIME STEP  100, STRESS PERIOD    2
1
  VOLUMETRIC BUDGET FOR ENTIRE MODEL AT END OF TIME STEP  100, STRESS PERIOD   2
  ------------------------------------------------------------------------------

     CUMULATIVE VOLUMES      L**3       RATES FOR THIS TIME STEP      L**3/T
     ------------------                 ------------------------

           IN:                                      IN:
           ---                                      ---
             STORAGE =      313613.7188               STORAGE =        1669.9912
       CONSTANT HEAD =           0.0000         CONSTANT HEAD =           0.0000
               WELLS =           0.0000                 WELLS =           0.0000
       RIVER LEAKAGE =           0.0000         RIVER LEAKAGE =           0.0000
            RECHARGE =     3353515.0000              RECHARGE =       33296.1602

            TOTAL IN =     3667128.7500              TOTAL IN =       34966.1523

          OUT:                                     OUT:
          ----                                     ----
             STORAGE =      790712.7500               STORAGE =        7689.5957
       CONSTANT HEAD =           0.0000         CONSTANT HEAD =           0.0000
               WELLS =       51454.3477                 WELLS =         509.4487
       RIVER LEAKAGE =     2825077.5000         RIVER LEAKAGE =       26768.6055
            RECHARGE =           0.0000              RECHARGE =           0.0000

           TOTAL OUT =     3667244.5000             TOTAL OUT =       34967.6484

            IN - OUT =        -115.7500              IN - OUT =          -1.4961

 PERCENT DISCREPANCY =          -0.00     PERCENT DISCREPANCY =          -0.00






         TIME SUMMARY AT END OF TIME STEP  100 IN STRESS PERIOD    2
                    SECONDS     MINUTES      HOURS       DAYS        YEARS
                    -----------------------------------------------------------
   TIME STEP LENGTH  86400.      1440.0      24.000      1.0000     2.73785E-03
 STRESS PERIOD TIME 8.64000E+06 1.44000E+05  2400.0      100.00     0.27379    
         TOTAL TIME 8.72640E+06 1.45440E+05  2424.0      101.00     0.27652    
1
1
                            STRESS PERIOD NO.    3, LENGTH =   100.0000    
                            -----------------------------------------------

                              NUMBER OF TIME STEPS =   100

                               MULTIPLIER FOR DELT =     1.000

                            INITIAL TIME STEP SIZE =   1.000000    

 WELL NO.  LAYER   ROW   COL   STRESS RATE         
 --------------------------------------------------
      1      1      7      9      -175.2    
      2      1      7     14      -34.41    
      3      1      3     16      -299.9    
      4      1      2      7       0.000    

      4 WELLS

 REACH NO.  LAYER   ROW   COL     STAGE      CONDUCTANCE     BOTTOM EL.         
 -------------------------------------------------------------------------------
      1      1      1     14      -1.864           3334.          -3.000    
      2      1      2     14      -1.864           3302.          -3.000    
      3      1      3     14      -1.864           2941.          -3.000    
      4      1      4      6      -1.864           2595.          -3.000    
      5      1      4      7      -1.864           2654.          -3.000    
      6      1      4      8      -1.864           2734.          -3.000    
      7      1      4      9      -1.864           3007.          -3.000    
      8      1      4     10      -1.864           2766.          -3.000    
      9      1      4     11      -1.864           2487.          -3.000    
     10      1      4     12      -1.864           1221.          -3.000    
     11      1      4     14      -1.864           3631.          -3.000    
     12      1      5      3      -1.864           172.7          -3.000    
     13      1      5      4      -1.864           505.2          -3.000    
     14      1      5      5      -1.864           3267.          -3.000    
     15      1      5      6      -1.864           1418.          -3.000    
     16      1      5     12      -1.864           1969.          -3.000    
     17      1      5     13      -1.864           4006.          -3.000    
     18      1      5     14      -1.864           1262.          -3.000    
     19      1      6      2      -1.864           3066.          -3.000    
     20      1      6      3      -1.864           4538.          -3.000    
     21      1      6      4      -1.864           2546.          -3.000    
     22      1      6      5      -1.864           323.7          -3.000    

     22 RIVER REACHES



                           RECHARGE
 READING ON UNIT   19 WITH FORMAT: (20G15.6)           

 SOLVING FOR HEAD 

    ------------------------------------------------
       NWT REQUIRED            4 OUTER ITERATIONS 
       AND A TOTAL OF          4 INNER ITERATIONS.
    ------------------------------------------------

 OUTPUT CONTROL FOR STRESS PERIOD    3   TIME STEP    1
    SAVE HEAD FOR ALL LAYERS
    SAVE DRAWDOWN FOR ALL LAYERS
    SAVE BUDGET
    PRINT HEAD FOR ALL LAYERS
    PRINT BUDGET
1
              HEAD IN LAYER   1 AT END OF TIME STEP   1 IN STRESS PERIOD    3
  ---------------------------------------------------------------------------

            1           2           3           4           5           6           7           8           9          10
           11          12          13          14          15          16          17          18          19          20
 ........................................................................................................................
   1    0.000       0.000       0.000       0.000       0.000       10.61       10.46       10.90       11.58       11.52    
        10.27       7.400       2.275     -0.2226       5.902       21.65       32.01       37.54       0.000       0.000    
   2    0.000       0.000       0.000       0.000       8.413       7.993       7.198       7.888       9.382       9.663    
        8.795       6.618       2.637     -0.2616       8.483       23.41       33.70       39.60       0.000       0.000    
   3    0.000       0.000       0.000       6.382       6.059       4.129       3.286       3.874       5.308       5.859    
        5.508       4.465       2.861     -0.4053       14.25       26.18       37.14       43.86       0.000       0.000    
   4    0.000       0.000       3.668       3.980       2.797     -0.3738     -0.1397     -0.1965     -0.3808     -0.3336    
      -0.3333     -0.2919       1.433     -0.4182       19.18       32.45       42.19       50.82       0.000       0.000    
   5    0.000       0.000      0.6913      2.0969E-02 -0.5681     -4.9624E-02   5.042       8.373       11.53       12.20    
        10.04      2.5968E-02 -0.3682       1.214       26.21       39.75       53.45       64.52       75.45       0.000    
   6    0.000     -0.4928     -0.5559     -0.3116       2.462       10.85       16.15       19.80       22.42       23.97    
        23.71       21.65       23.06       28.25       41.05       53.51       67.86       72.95       77.90       0.000    
   7    0.000       9.865       11.45       13.30       16.43       21.44       25.85       29.24       31.27       34.26    
        35.88       37.13       40.12       45.67       54.95       65.20       74.24       80.29       0.000       0.000    
   8    0.000       16.09       20.40       23.03       26.05       29.85       33.62       36.97       39.83       42.74    
        45.35       48.12       52.02       57.62       65.09       73.26       80.75       88.84       0.000       0.000    
   9    0.000       0.000       28.15       29.82       32.39       35.60       39.00       42.31       45.44       48.56    
        51.70       55.19       59.54       65.06       71.75       79.08       86.53       94.50       102.3       107.2    
  10    0.000       0.000       31.90       33.25       35.56       38.50       41.73       45.00       48.23       51.47    
        54.86       58.64       63.17       68.64       75.04       82.03       89.26       96.49       102.9       106.6    

 HEAD WILL BE SAVED ON UNIT   51 AT END OF TIME STEP    1, STRESS PERIOD    3

 DRAWDOWN WILL BE SAVED ON UNIT   52 AT END OF TIME STEP    1, STRESS PERIOD    3
1
  VOLUMETRIC BUDGET FOR ENTIRE MODEL AT END OF TIME STEP    1, STRESS PERIOD   3
  ------------------------------------------------------------------------------

     CUMULATIVE VOLUMES      L**3       RATES FOR THIS TIME STEP      L**3/T
     ------------------                 ------------------------

           IN:                                      IN:
           ---                                      ---
             STORAGE =      378860.6875               STORAGE =       65246.9648
       CONSTANT HEAD =           0.0000         CONSTANT HEAD =           0.0000
               WELLS =           0.0000                 WELLS =           0.0000
       RIVER LEAKAGE =           0.0000         RIVER LEAKAGE =           0.0000
            RECHARGE =     3373776.7500              RECHARGE =       20261.7871

            TOTAL IN =     3752637.5000              TOTAL IN =       85508.7500

          OUT:                                     OUT:
          ----                                     ----
             STORAGE =      790712.7500               STORAGE =           0.0000
       CONSTANT HEAD =           0.0000         CONSTANT HEAD =           0.0000
               WELLS =       51963.7969                 WELLS =         509.4487
       RIVER LEAKAGE =     2910076.0000         RIVER LEAKAGE =       84998.4766
            RECHARGE =           0.0000              RECHARGE =           0.0000

           TOTAL OUT =     3752752.5000             TOTAL OUT =       85507.9219

            IN - OUT =        -115.0000              IN - OUT =           0.8281

 PERCENT DISCREPANCY =          -0.00     PERCENT DISCREPANCY =           0.00






         TIME SUMMARY AT END OF TIME STEP    1 IN STRESS PERIOD    3
                    SECONDS     MINUTES      HOURS       DAYS        YEARS
                    -----------------------------------------------------------
   TIME STEP LENGTH  86400.      1440.0      24.000      1.0000     2.73785E-03
 STRESS PERIOD TIME  86400.      1440.0      24.000      1.0000     2.73785E-03
         TOTAL TIME 8.81280E+06 1.46880E+05  2448.0      102.00     0.27926    
1

 SOLVING FOR HEAD 

    ------------------------------------------------
       NWT REQUIRED            4 OUTER ITERATIONS 
       AND A TOTAL OF          4 INNER ITERATIONS.
    ------------------------------------------------

 OUTPUT CONTROL FOR STRESS PERIOD    3   TIME STEP    2
    SAVE HEAD FOR ALL LAYERS
    SAVE DRAWDOWN FOR ALL LAYERS
    SAVE BUDGET
    PRINT HEAD FOR ALL LAYERS
    PRINT BUDGET
1
              HEAD IN LAYER   1 AT END OF TIME STEP   2 IN STRESS PERIOD    3
  ---------------------------------------------------------------------------

            1           2           3           4           5           6           7           8           9          10
           11          12          13          14          15          16          17          18          19          20
 ........................................................................................................................
   1    0.000       0.000       0.000       0.000       0.000       10.61       10.46       10.90       11.58       11.52    
        10.27       7.399       2.274     -0.2278       5.901       21.65       32.00       37.54       0.000       0.000    
   2    0.000       0.000       0.000       0.000       8.412       7.993       7.198       7.887       9.382       9.663    
        8.794       6.617       2.636     -0.2690       8.482       23.41       33.70       39.60       0.000       0.000    
   3    0.000       0.000       0.000       6.381       6.058       4.128       3.285       3.873       5.307       5.858    
        5.507       4.464       2.860     -0.4180       14.25       26.18       37.14       43.86       0.000       0.000    
   4    0.000       0.000       3.667       3.979       2.796     -0.3829     -0.1460     -0.2054     -0.3938     -0.3456    
      -0.3442     -0.2975       1.431     -0.4336       19.18       32.45       42.19       50.82       0.000       0.000    
   5    0.000       0.000      0.6846      4.5721E-03 -0.5821     -5.6039E-02   5.041       8.372       11.53       12.20    
        10.04     -4.3621E-03 -0.3852       1.178       26.20       39.74       53.45       64.52       75.45       0.000    
   6    0.000     -0.5060     -0.5749     -0.3227       2.450       10.85       16.15       19.80       22.42       23.97    
        23.71       21.65       23.06       28.25       41.05       53.50       67.86       72.95       77.90       0.000    
   7    0.000       9.864       11.45       13.30       16.43       21.44       25.84       29.24       31.27       34.26    
        35.88       37.13       40.12       45.67       54.95       65.20       74.24       80.29       0.000       0.000    
   8    0.000       16.09       20.40       23.03       26.05       29.85       33.62       36.97       39.83       42.74    
        45.34       48.12       52.02       57.62       65.09       73.26       80.75       88.84       0.000       0.000    
   9    0.000       0.000       28.15       29.82       32.39       35.59       39.00       42.30       45.44       48.56    
        51.70       55.19       59.54       65.06       71.75       79.08       86.53       94.50       102.3       107.2    
  10    0.000       0.000       31.90       33.25       35.56       38.50       41.73       45.00       48.23       51.47    
        54.86       58.64       63.16       68.64       75.04       82.03       89.25       96.49       102.9       106.6    

 HEAD WILL BE SAVED ON UNIT   51 AT END OF TIME STEP    2, STRESS PERIOD    3

 DRAWDOWN WILL BE SAVED ON UNIT   52 AT END OF TIME STEP    2, STRESS PERIOD    3
1
  VOLUMETRIC BUDGET FOR ENTIRE MODEL AT END OF TIME STEP    2, STRESS PERIOD   3
  ------------------------------------------------------------------------------

     CUMULATIVE VOLUMES      L**3       RATES FOR THIS TIME STEP      L**3/T
     ------------------                 ------------------------

           IN:                                      IN:
           ---                                      ---
             STORAGE =      443406.6875               STORAGE =       64546.0117
       CONSTANT HEAD =           0.0000         CONSTANT HEAD =           0.0000
               WELLS =           0.0000                 WELLS =           0.0000
       RIVER LEAKAGE =           0.0000         RIVER LEAKAGE =           0.0000
            RECHARGE =     3394038.5000              RECHARGE =       20261.7871

            TOTAL IN =     3837445.2500              TOTAL IN =       84807.7969

          OUT:                                     OUT:
          ----                                     ----
             STORAGE =      790712.7500               STORAGE =           0.0000
       CONSTANT HEAD =           0.0000         CONSTANT HEAD =           0.0000
               WELLS =       52473.2461                 WELLS =         509.4487
       RIVER LEAKAGE =     2994372.5000         RIVER LEAKAGE =       84296.6172
            RECHARGE =           0.0000              RECHARGE =           0.0000

           TOTAL OUT =     3837558.5000             TOTAL OUT =       84806.0625

            IN - OUT =        -113.2500              IN - OUT =           1.7344

 PERCENT DISCREPANCY =          -0.00     PERCENT DISCREPANCY =           0.00






         TIME SUMMARY AT END OF TIME STEP    2 IN STRESS PERIOD    3
                    SECONDS     MINUTES      HOURS       DAYS        YEARS
                    -----------------------------------------------------------
   TIME STEP LENGTH  86400.      1440.0      24.000      1.0000     2.73785E-03
 STRESS PERIOD TIME 1.72800E+05  2880.0      48.000      2.0000     5.47570E-03
         TOTAL TIME 8.89920E+06 1.48320E+05  2472.0      103.00     0.28200    
1

 SOLVING FOR HEAD 

    ------------------------------------------------
       NWT REQUIRED            4 OUTER ITERATIONS 
       AND A TOTAL OF          4 INNER ITERATIONS.
    ------------------------------------------------

 OUTPUT CONTROL FOR STRESS PERIOD    3   TIME STEP    3
    SAVE HEAD FOR ALL LAYERS
    SAVE DRAWDOWN FOR ALL LAYERS
    SAVE BUDGET
    PRINT HEAD FOR ALL LAYERS
    PRINT BUDGET
1
              HEAD IN LAYER   1 AT END OF TIME STEP   3 IN STRESS PERIOD    3
  ---------------------------------------------------------------------------

            1           2           3           4           5           6           7           8           9          10
           11          12          13          14          15          16          17          18          19          20
 ........................................................................................................................
   1    0.000       0.000       0.000       0.000       0.000       10.61       10.46       10.90       11.58       11.52    
        10.27       7.398       2.272     -0.2329       5.899       21.65       32.00       37.54       0.000       0.000    
   2    0.000       0.000       0.000       0.000       8.412       7.992       7.197       7.886       9.381       9.662    
        8.794       6.616       2.635     -0.2764       8.481       23.41       33.70       39.60       0.000       0.000    
   3    0.000       0.000       0.000       6.381       6.057       4.127       3.283       3.872       5.306       5.857    
        5.506       4.463       2.859     -0.4305       14.25       26.18       37.14       43.86       0.000       0.000    
   4    0.000       0.000       3.666       3.978       2.794     -0.3918     -0.1522     -0.2141     -0.4066     -0.3575    
      -0.3549     -0.3031       1.430     -0.4489       19.18       32.45       42.19       50.82       0.000       0.000    
   5    0.000       0.000      0.6779     -1.8936E-03 -0.5960     -6.2420E-02   5.040       8.371       11.53       12.20    
        10.04     -1.2156E-02 -0.4018       1.143       26.20       39.74       53.45       64.52       75.45       0.000    
   6    0.000     -0.5191     -0.5936     -0.3338       2.439       10.85       16.15       19.80       22.42       23.96    
        23.71       21.65       23.06       28.25       41.05       53.50       67.86       72.95       77.90       0.000    
   7    0.000       9.863       11.44       13.30       16.43       21.44       25.84       29.24       31.27       34.26    
        35.87       37.13       40.12       45.67       54.95       65.20       74.24       80.29       0.000       0.000    
   8    0.000       16.09       20.40       23.03       26.05       29.85       33.62       36.97       39.82       42.74    
        45.34       48.12       52.02       57.62       65.09       73.26       80.75       88.84       0.000       0.000    
   9    0.000       0.000       28.15       29.82       32.39       35.59       39.00       42.30       45.44       48.56    
        51.70       55.19       59.54       65.06       71.75       79.08       86.53       94.50       102.3       107.2    
  10    0.000       0.000       31.90       33.25       35.56       38.50       41.73       45.00       48.23       51.47    
        54.86       58.64       63.16       68.64       75.04       82.03       89.25       96.49       102.9       106.6    

 HEAD WILL BE SAVED ON UNIT   51 AT END OF TIME STEP    3, STRESS PERIOD    3

 DRAWDOWN WILL BE SAVED ON UNIT   52 AT END OF TIME STEP    3, STRESS PERIOD    3
1
  VOLUMETRIC BUDGET FOR ENTIRE MODEL AT END OF TIME STEP    3, STRESS PERIOD   3
  ------------------------------------------------------------------------------

     CUMULATIVE VOLUMES      L**3       RATES FOR THIS TIME STEP      L**3/T
     ------------------                 ------------------------

           IN:                                      IN:
           ---                                      ---
             STORAGE =      507308.3438               STORAGE =       63901.6602
       CONSTANT HEAD =           0.0000         CONSTANT HEAD =           0.0000
               WELLS =           0.0000                 WELLS =           0.0000
       RIVER LEAKAGE =           0.0000         RIVER LEAKAGE =           0.0000
            RECHARGE =     3414300.2500              RECHARGE =       20261.7871

            TOTAL IN =     3921608.5000              TOTAL IN =       84163.4453

          OUT:                                     OUT:
          ----                                     ----
             STORAGE =      790712.7500               STORAGE =           0.0000
       CONSTANT HEAD =           0.0000         CONSTANT HEAD =           0.0000
               WELLS =       52982.6953                 WELLS =         509.4487
       RIVER LEAKAGE =     3078025.2500         RIVER LEAKAGE =       83652.8281
            RECHARGE =           0.0000              RECHARGE =           0.0000

           TOTAL OUT =     3921720.7500             TOTAL OUT =       84162.2734

            IN - OUT =        -112.2500              IN - OUT =           1.1719

 PERCENT DISCREPANCY =          -0.00     PERCENT DISCREPANCY =           0.00






         TIME SUMMARY AT END OF TIME STEP    3 IN STRESS PERIOD    3
                    SECONDS     MINUTES      HOURS       DAYS        YEARS
                    -----------------------------------------------------------
   TIME STEP LENGTH  86400.      1440.0      24.000      1.0000     2.73785E-03
 STRESS PERIOD TIME 2.59200E+05  4320.0      72.000      3.0000     8.21355E-03
         TOTAL TIME 8.98560E+06 1.49760E+05  2496.0      104.00     0.28474    
1

 SOLVING FOR HEAD 

    ------------------------------------------------
       NWT REQUIRED            4 OUTER ITERATIONS 
       AND A TOTAL OF          4 INNER ITERATIONS.
    ------------------------------------------------

 OUTPUT CONTROL FOR STRESS PERIOD    3   TIME STEP    4
    SAVE HEAD FOR ALL LAYERS
    SAVE DRAWDOWN FOR ALL LAYERS
    SAVE BUDGET
    PRINT HEAD FOR ALL LAYERS
    PRINT BUDGET
1
              HEAD IN LAYER   1 AT END OF TIME STEP   4 IN STRESS PERIOD    3
  ---------------------------------------------------------------------------

            1           2           3           4           5           6           7           8           9          10
           11          12          13          14          15          16          17          18          19          20
 ........................................................................................................................
   1    0.000       0.000       0.000       0.000       0.000       10.61       10.46       10.90       11.58       11.51    
        10.27       7.398       2.271     -0.2381       5.898       21.65       32.00       37.54       0.000       0.000    
   2    0.000       0.000       0.000       0.000       8.411       7.991       7.196       7.886       9.381       9.661    
        8.793       6.616       2.634     -0.2837       8.480       23.41       33.70       39.60       0.000       0.000    
   3    0.000       0.000       0.000       6.380       6.057       4.126       3.282       3.870       5.305       5.856    
        5.506       4.462       2.858     -0.4429       14.25       26.18       37.14       43.86       0.000       0.000    
   4    0.000       0.000       3.665       3.978       2.793     -0.4007     -0.1584     -0.2228     -0.4192     -0.3692    
      -0.3656     -0.3086       1.429     -0.4639       19.18       32.45       42.19       50.82       0.000       0.000    
   5    0.000       0.000      0.6712     -4.2244E-03 -0.6096     -6.8766E-02   5.039       8.370       11.52       12.20    
        10.04     -1.9891E-02 -0.4183       1.109       26.20       39.74       53.45       64.52       75.45       0.000    
   6    0.000     -0.5320     -0.6119     -0.3447       2.428       10.85       16.15       19.80       22.42       23.96    
        23.71       21.64       23.06       28.25       41.05       53.50       67.86       72.94       77.90       0.000    
   7    0.000       9.862       11.44       13.30       16.43       21.44       25.84       29.24       31.27       34.26    
        35.87       37.13       40.12       45.67       54.95       65.20       74.24       80.29       0.000       0.000    
   8    0.000       16.09       20.40       23.03       26.05       29.85       33.62       36.97       39.82       42.74    
        45.34       48.12       52.02       57.62       65.09       73.26       80.75       88.84       0.000       0.000    
   9    0.000       0.000       28.15       29.82       32.39       35.59       39.00       42.30       45.44       48.56    
        51.70       55.19       59.54       65.06       71.75       79.08       86.53       94.50       102.3       107.2    
  10    0.000       0.000       31.90       33.25       35.56       38.50       41.73       45.00       48.23       51.47    
        54.86       58.64       63.16       68.64       75.04       82.03       89.25       96.49       102.9       106.6    

 HEAD WILL BE SAVED ON UNIT   51 AT END OF TIME STEP    4, STRESS PERIOD    3

 DRAWDOWN WILL BE SAVED ON UNIT   52 AT END OF TIME STEP    4, STRESS PERIOD    3
1
  VOLUMETRIC BUDGET FOR ENTIRE MODEL AT END OF TIME STEP    4, STRESS PERIOD   3
  ------------------------------------------------------------------------------

     CUMULATIVE VOLUMES      L**3       RATES FOR THIS TIME STEP      L**3/T
     ------------------                 ------------------------

           IN:                                      IN:
           ---                                      ---
             STORAGE =      570576.5625               STORAGE =       63268.2461
       CONSTANT HEAD =           0.0000         CONSTANT HEAD =           0.0000
               WELLS =           0.0000                 WELLS =           0.0000
       RIVER LEAKAGE =           0.0000         RIVER LEAKAGE =           0.0000
            RECHARGE =     3434562.0000              RECHARGE =       20261.7871

            TOTAL IN =     4005138.5000              TOTAL IN =       83530.0312

          OUT:                                     OUT:
          ----                                     ----
             STORAGE =      790712.7500               STORAGE =           0.0000
       CONSTANT HEAD =           0.0000         CONSTANT HEAD =           0.0000
               WELLS =       53492.1445                 WELLS =         509.4487
       RIVER LEAKAGE =     3161045.0000         RIVER LEAKAGE =       83019.7891
            RECHARGE =           0.0000              RECHARGE =           0.0000

           TOTAL OUT =     4005250.0000             TOTAL OUT =       83529.2344

            IN - OUT =        -111.5000              IN - OUT =           0.7969

 PERCENT DISCREPANCY =          -0.00     PERCENT DISCREPANCY =           0.00






         TIME SUMMARY AT END OF TIME STEP    4 IN STRESS PERIOD    3
                    SECONDS     MINUTES      HOURS       DAYS        YEARS
                    -----------------------------------------------------------
   TIME STEP LENGTH  86400.      1440.0      24.000      1.0000     2.73785E-03
 STRESS PERIOD TIME 3.45600E+05  5760.0      96.000      4.0000     1.09514E-02
         TOTAL TIME 9.07200E+06 1.51200E+05  2520.0      105.00     0.28747    
1

 SOLVING FOR HEAD 

    ------------------------------------------------
       NWT REQUIRED            4 OUTER ITERATIONS 
       AND A TOTAL OF          4 INNER ITERATIONS.
    ------------------------------------------------

 OUTPUT CONTROL FOR STRESS PERIOD    3   TIME STEP    5
    SAVE HEAD FOR ALL LAYERS
    SAVE DRAWDOWN FOR ALL LAYERS
    SAVE BUDGET
    PRINT HEAD FOR ALL LAYERS
    PRINT BUDGET
1
              HEAD IN LAYER   1 AT END OF TIME STEP   5 IN STRESS PERIOD    3
  ---------------------------------------------------------------------------

            1           2           3           4           5           6           7           8           9          10
           11          12          13          14          15          16          17          18          19          20
 ........................................................................................................................
   1    0.000       0.000       0.000       0.000       0.000       10.61       10.46       10.90       11.58       11.51    
        10.27       7.397       2.270     -0.2432       5.897       21.65       32.00       37.54       0.000       0.000    
   2    0.000       0.000       0.000       0.000       8.411       7.991       7.195       7.885       9.380       9.661    
        8.792       6.615       2.633     -0.2909       8.479       23.41       33.70       39.60       0.000       0.000    
   3    0.000       0.000       0.000       6.379       6.056       4.125       3.281       3.869       5.304       5.855    
        5.505       4.461       2.857     -0.4552       14.25       26.18       37.14       43.86       0.000       0.000    
   4    0.000       0.000       3.665       3.977       2.792     -0.4095     -0.1645     -0.2314     -0.4317     -0.3808    
      -0.3761     -0.3141       1.427     -0.4788       19.17       32.45       42.19       50.82       0.000       0.000    
   5    0.000       0.000      0.6646     -6.5549E-03 -0.6231     -7.5078E-02   5.037       8.369       11.52       12.20    
        10.04     -2.7566E-02 -0.4344       1.076       26.20       39.74       53.45       64.52       75.45       0.000    
   6    0.000     -0.5448     -0.6299     -0.3554       2.418       10.85       16.15       19.80       22.41       23.96    
        23.71       21.64       23.06       28.24       41.05       53.50       67.86       72.94       77.90       0.000    
   7    0.000       9.861       11.44       13.30       16.42       21.44       25.84       29.24       31.27       34.26    
        35.87       37.12       40.12       45.67       54.95       65.20       74.24       80.29       0.000       0.000    
   8    0.000       16.09       20.40       23.03       26.05       29.85       33.62       36.97       39.82       42.74    
        45.34       48.12       52.02       57.62       65.09       73.26       80.75       88.84       0.000       0.000    
   9    0.000       0.000       28.15       29.82       32.39       35.59       39.00       42.30       45.44       48.55    
        51.70       55.19       59.54       65.06       71.75       79.08       86.53       94.50       102.3       107.2    
  10    0.000       0.000       31.90       33.25       35.56       38.50       41.73       45.00       48.23       51.47    
        54.86       58.64       63.16       68.64       75.04       82.03       89.25       96.49       102.9       106.6    

 HEAD WILL BE SAVED ON UNIT   51 AT END OF TIME STEP    5, STRESS PERIOD    3

 DRAWDOWN WILL BE SAVED ON UNIT   52 AT END OF TIME STEP    5, STRESS PERIOD    3
1
  VOLUMETRIC BUDGET FOR ENTIRE MODEL AT END OF TIME STEP    5, STRESS PERIOD   3
  ------------------------------------------------------------------------------

     CUMULATIVE VOLUMES      L**3       RATES FOR THIS TIME STEP      L**3/T
     ------------------                 ------------------------

           IN:                                      IN:
           ---                                      ---
             STORAGE =      633220.2500               STORAGE =       62643.6953
       CONSTANT HEAD =           0.0000         CONSTANT HEAD =           0.0000
               WELLS =           0.0000                 WELLS =           0.0000
       RIVER LEAKAGE =           0.0000         RIVER LEAKAGE =           0.0000
            RECHARGE =     3454823.7500              RECHARGE =       20261.7871

            TOTAL IN =     4088044.0000              TOTAL IN =       82905.4844

          OUT:                                     OUT:
          ----                                     ----
             STORAGE =      790712.7500               STORAGE =           0.0000
       CONSTANT HEAD =           0.0000         CONSTANT HEAD =           0.0000
               WELLS =       54001.5938                 WELLS =         509.4487
       RIVER LEAKAGE =     3243440.2500         RIVER LEAKAGE =       82395.2422
            RECHARGE =           0.0000              RECHARGE =           0.0000

           TOTAL OUT =     4088154.5000             TOTAL OUT =       82904.6875

            IN - OUT =        -110.5000              IN - OUT =           0.7969

 PERCENT DISCREPANCY =          -0.00     PERCENT DISCREPANCY =           0.00






         TIME SUMMARY AT END OF TIME STEP    5 IN STRESS PERIOD    3
                    SECONDS     MINUTES      HOURS       DAYS        YEARS
                    -----------------------------------------------------------
   TIME STEP LENGTH  86400.      1440.0      24.000      1.0000     2.73785E-03
 STRESS PERIOD TIME 4.32000E+05  7200.0      120.00      5.0000     1.36893E-02
         TOTAL TIME 9.15840E+06 1.52640E+05  2544.0      106.00     0.29021    
1

 SOLVING FOR HEAD 

    ------------------------------------------------
       NWT REQUIRED            4 OUTER ITERATIONS 
       AND A TOTAL OF          4 INNER ITERATIONS.
    ------------------------------------------------

 OUTPUT CONTROL FOR STRESS PERIOD    3   TIME STEP    6
    SAVE HEAD FOR ALL LAYERS
    SAVE DRAWDOWN FOR ALL LAYERS
    SAVE BUDGET
    PRINT HEAD FOR ALL LAYERS
    PRINT BUDGET
1
              HEAD IN LAYER   1 AT END OF TIME STEP   6 IN STRESS PERIOD    3
  ---------------------------------------------------------------------------

            1           2           3           4           5           6           7           8           9          10
           11          12          13          14          15          16          17          18          19          20
 ........................................................................................................................
   1    0.000       0.000       0.000       0.000       0.000       10.60       10.46       10.90       11.58       11.51    
        10.27       7.396       2.268     -0.2483       5.895       21.65       32.00       37.54       0.000       0.000    
   2    0.000       0.000       0.000       0.000       8.410       7.990       7.195       7.884       9.379       9.660    
        8.792       6.615       2.631     -0.2981       8.477       23.41       33.70       39.60       0.000       0.000    
   3    0.000       0.000       0.000       6.379       6.055       4.124       3.279       3.868       5.303       5.854    
        5.504       4.460       2.856     -0.4673       14.24       26.18       37.14       43.86       0.000       0.000    
   4    0.000       0.000       3.664       3.976       2.791     -0.4182     -0.1706     -0.2399     -0.4441     -0.3923    
      -0.3866     -0.3196       1.426     -0.4934       19.17       32.45       42.19       50.82       0.000       0.000    
   5    0.000       0.000      0.6580     -8.8852E-03 -0.6364     -8.1356E-02   5.036       8.368       11.52       12.20    
        10.04     -3.5183E-02 -0.4504       1.045       26.20       39.74       53.45       64.52       75.44       0.000    
   6    0.000     -0.5574     -0.6476     -0.3661       2.407       10.85       16.15       19.80       22.41       23.96    
        23.71       21.64       23.06       28.24       41.05       53.50       67.86       72.94       77.90       0.000    
   7    0.000       9.860       11.44       13.29       16.42       21.44       25.84       29.24       31.27       34.26    
        35.87       37.12       40.12       45.67       54.95       65.19       74.24       80.29       0.000       0.000    
   8    0.000       16.09       20.40       23.03       26.05       29.85       33.62       36.97       39.82       42.74    
        45.34       48.12       52.02       57.62       65.09       73.26       80.75       88.84       0.000       0.000    
   9    0.000       0.000       28.15       29.82       32.39       35.59       38.99       42.30       45.44       48.55    
        51.70       55.19       59.54       65.06       71.75       79.08       86.53       94.50       102.3       107.2    
  10    0.000       0.000       31.90       33.25       35.56       38.50       41.73       45.00       48.23       51.47    
        54.85       58.64       63.16       68.64       75.04       82.03       89.25       96.49       102.9       106.6    

 HEAD WILL BE SAVED ON UNIT   51 AT END OF TIME STEP    6, STRESS PERIOD    3

 DRAWDOWN WILL BE SAVED ON UNIT   52 AT END OF TIME STEP    6, STRESS PERIOD    3
1
  VOLUMETRIC BUDGET FOR ENTIRE MODEL AT END OF TIME STEP    6, STRESS PERIOD   3
  ------------------------------------------------------------------------------

     CUMULATIVE VOLUMES      L**3       RATES FOR THIS TIME STEP      L**3/T
     ------------------                 ------------------------

           IN:                                      IN:
           ---                                      ---
             STORAGE =      695247.7500               STORAGE =       62027.5039
       CONSTANT HEAD =           0.0000         CONSTANT HEAD =           0.0000
               WELLS =           0.0000                 WELLS =           0.0000
       RIVER LEAKAGE =           0.0000         RIVER LEAKAGE =           0.0000
            RECHARGE =     3475085.5000              RECHARGE =       20261.7871

            TOTAL IN =     4170333.2500              TOTAL IN =       82289.2891

          OUT:                                     OUT:
          ----                                     ----
             STORAGE =      790712.7500               STORAGE =           0.0000
       CONSTANT HEAD =           0.0000         CONSTANT HEAD =           0.0000
               WELLS =       54511.0430                 WELLS =         509.4487
       RIVER LEAKAGE =     3325219.2500         RIVER LEAKAGE =       81779.0625
            RECHARGE =           0.0000              RECHARGE =           0.0000

           TOTAL OUT =     4170443.0000             TOTAL OUT =       82288.5078

            IN - OUT =        -109.7500              IN - OUT =           0.7812

 PERCENT DISCREPANCY =          -0.00     PERCENT DISCREPANCY =           0.00






         TIME SUMMARY AT END OF TIME STEP    6 IN STRESS PERIOD    3
                    SECONDS     MINUTES      HOURS       DAYS        YEARS
                    -----------------------------------------------------------
   TIME STEP LENGTH  86400.      1440.0      24.000      1.0000     2.73785E-03
 STRESS PERIOD TIME 5.18400E+05  8640.0      144.00      6.0000     1.64271E-02
         TOTAL TIME 9.24480E+06 1.54080E+05  2568.0      107.00     0.29295    
1

 SOLVING FOR HEAD 

    ------------------------------------------------
       NWT REQUIRED            4 OUTER ITERATIONS 
       AND A TOTAL OF          4 INNER ITERATIONS.
    ------------------------------------------------

 OUTPUT CONTROL FOR STRESS PERIOD    3   TIME STEP    7
    SAVE HEAD FOR ALL LAYERS
    SAVE DRAWDOWN FOR ALL LAYERS
    SAVE BUDGET
    PRINT HEAD FOR ALL LAYERS
    PRINT BUDGET
1
              HEAD IN LAYER   1 AT END OF TIME STEP   7 IN STRESS PERIOD    3
  ---------------------------------------------------------------------------

            1           2           3           4           5           6           7           8           9          10
           11          12          13          14          15          16          17          18          19          20
 ........................................................................................................................
   1    0.000       0.000       0.000       0.000       0.000       10.60       10.46       10.90       11.58       11.51    
        10.27       7.396       2.267     -0.2534       5.894       21.65       32.00       37.54       0.000       0.000    
   2    0.000       0.000       0.000       0.000       8.409       7.990       7.194       7.884       9.379       9.660    
        8.791       6.614       2.630     -0.3053       8.476       23.40       33.70       39.60       0.000       0.000    
   3    0.000       0.000       0.000       6.378       6.055       4.123       3.278       3.866       5.302       5.853    
        5.503       4.460       2.855     -0.4793       14.24       26.18       37.14       43.86       0.000       0.000    
   4    0.000       0.000       3.663       3.975       2.789     -0.4269     -0.1767     -0.2484     -0.4563     -0.4037    
      -0.3969     -0.3251       1.424     -0.5078       19.17       32.45       42.19       50.82       0.000       0.000    
   5    0.000       0.000      0.6514     -1.1215E-02 -0.6496     -8.7601E-02   5.034       8.367       11.52       12.20    
        10.04     -4.2742E-02 -0.4660       1.015       26.20       39.74       53.45       64.52       75.44       0.000    
   6    0.000     -0.5699     -0.6650     -0.3767       2.396       10.84       16.15       19.80       22.41       23.96    
        23.71       21.64       23.05       28.24       41.05       53.50       67.86       72.94       77.90       0.000    
   7    0.000       9.859       11.44       13.29       16.42       21.44       25.84       29.24       31.27       34.26    
        35.87       37.12       40.12       45.67       54.95       65.19       74.24       80.29       0.000       0.000    
   8    0.000       16.09       20.39       23.03       26.05       29.85       33.62       36.97       39.82       42.74    
        45.34       48.12       52.02       57.62       65.09       73.26       80.75       88.84       0.000       0.000    
   9    0.000       0.000       28.15       29.82       32.39       35.59       38.99       42.30       45.43       48.55    
        51.70       55.19       59.54       65.06       71.75       79.08       86.53       94.49       102.3       107.2    
  10    0.000       0.000       31.90       33.25       35.56       38.50       41.73       45.00       48.23       51.47    
        54.85       58.64       63.16       68.64       75.03       82.03       89.25       96.49       102.9       106.6    

 HEAD WILL BE SAVED ON UNIT   51 AT END OF TIME STEP    7, STRESS PERIOD    3

 DRAWDOWN WILL BE SAVED ON UNIT   52 AT END OF TIME STEP    7, STRESS PERIOD    3
1
  VOLUMETRIC BUDGET FOR ENTIRE MODEL AT END OF TIME STEP    7, STRESS PERIOD   3
  ------------------------------------------------------------------------------

     CUMULATIVE VOLUMES      L**3       RATES FOR THIS TIME STEP      L**3/T
     ------------------                 ------------------------

           IN:                                      IN:
           ---                                      ---
             STORAGE =      756667.2500               STORAGE =       61419.5273
       CONSTANT HEAD =           0.0000         CONSTANT HEAD =           0.0000
               WELLS =           0.0000                 WELLS =           0.0000
       RIVER LEAKAGE =           0.0000         RIVER LEAKAGE =           0.0000
            RECHARGE =     3495347.2500              RECHARGE =       20261.7871

            TOTAL IN =     4252014.5000              TOTAL IN =       81681.3125

          OUT:                                     OUT:
          ----                                     ----
             STORAGE =      790712.7500               STORAGE =           0.0000
       CONSTANT HEAD =           0.0000         CONSTANT HEAD =           0.0000
               WELLS =       55020.4922                 WELLS =         509.4487
       RIVER LEAKAGE =     3406390.2500         RIVER LEAKAGE =       81171.0938
            RECHARGE =           0.0000              RECHARGE =           0.0000

           TOTAL OUT =     4252123.5000             TOTAL OUT =       81680.5391

            IN - OUT =        -109.0000              IN - OUT =           0.7734

 PERCENT DISCREPANCY =          -0.00     PERCENT DISCREPANCY =           0.00






         TIME SUMMARY AT END OF TIME STEP    7 IN STRESS PERIOD    3
                    SECONDS     MINUTES      HOURS       DAYS        YEARS
                    -----------------------------------------------------------
   TIME STEP LENGTH  86400.      1440.0      24.000      1.0000     2.73785E-03
 STRESS PERIOD TIME 6.04800E+05  10080.      168.00      7.0000     1.91650E-02
         TOTAL TIME 9.33120E+06 1.55520E+05  2592.0      108.00     0.29569    
1

 SOLVING FOR HEAD 

    ------------------------------------------------
       NWT REQUIRED            4 OUTER ITERATIONS 
       AND A TOTAL OF          4 INNER ITERATIONS.
    ------------------------------------------------

 OUTPUT CONTROL FOR STRESS PERIOD    3   TIME STEP    8
    SAVE HEAD FOR ALL LAYERS
    SAVE DRAWDOWN FOR ALL LAYERS
    SAVE BUDGET
    PRINT HEAD FOR ALL LAYERS
    PRINT BUDGET
1
              HEAD IN LAYER   1 AT END OF TIME STEP   8 IN STRESS PERIOD    3
  ---------------------------------------------------------------------------

            1           2           3           4           5           6           7           8           9          10
           11          12          13          14          15          16          17          18          19          20
 ........................................................................................................................
   1    0.000       0.000       0.000       0.000       0.000       10.60       10.46       10.89       11.58       11.51    
        10.27       7.395       2.266     -0.2585       5.893       21.65       32.00       37.54       0.000       0.000    
   2    0.000       0.000       0.000       0.000       8.409       7.989       7.193       7.883       9.378       9.659    
        8.791       6.613       2.629     -0.3124       8.475       23.40       33.70       39.60       0.000       0.000    
   3    0.000       0.000       0.000       6.378       6.054       4.121       3.276       3.865       5.301       5.852    
        5.502       4.459       2.854     -0.4912       14.24       26.18       37.14       43.86       0.000       0.000    
   4    0.000       0.000       3.662       3.974       2.788     -0.4355     -0.1827     -0.2567     -0.4684     -0.4149    
      -0.4071     -0.3305       1.423     -0.5220       19.17       32.45       42.19       50.82       0.000       0.000    
   5    0.000       0.000      0.6448     -1.3544E-02 -0.6625     -9.3812E-02   5.033       8.366       11.52       12.19    
        10.03     -5.0243E-02 -0.4815      0.9854       26.20       39.74       53.45       64.52       75.44       0.000    
   6    0.000     -0.5822     -0.6821     -0.3872       2.386       10.84       16.15       19.80       22.41       23.96    
        23.71       21.64       23.05       28.24       41.05       53.50       67.86       72.94       77.90       0.000    
   7    0.000       9.858       11.44       13.29       16.42       21.44       25.84       29.24       31.27       34.26    
        35.87       37.12       40.12       45.67       54.95       65.19       74.24       80.29       0.000       0.000    
   8    0.000       16.09       20.39       23.03       26.05       29.85       33.62       36.97       39.82       42.74    
        45.34       48.12       52.02       57.62       65.08       73.26       80.75       88.84       0.000       0.000    
   9    0.000       0.000       28.15       29.82       32.39       35.59       38.99       42.30       45.43       48.55    
        51.70       55.19       59.53       65.06       71.75       79.08       86.52       94.49       102.3       107.2    
  10    0.000       0.000       31.90       33.25       35.56       38.50       41.73       45.00       48.23       51.47    
        54.85       58.64       63.16       68.64       75.03       82.03       89.25       96.49       102.9       106.6    

 HEAD WILL BE SAVED ON UNIT   51 AT END OF TIME STEP    8, STRESS PERIOD    3

 DRAWDOWN WILL BE SAVED ON UNIT   52 AT END OF TIME STEP    8, STRESS PERIOD    3
1
  VOLUMETRIC BUDGET FOR ENTIRE MODEL AT END OF TIME STEP    8, STRESS PERIOD   3
  ------------------------------------------------------------------------------

     CUMULATIVE VOLUMES      L**3       RATES FOR THIS TIME STEP      L**3/T
     ------------------                 ------------------------

           IN:                                      IN:
           ---                                      ---
             STORAGE =      817486.8750               STORAGE =       60819.6250
       CONSTANT HEAD =           0.0000         CONSTANT HEAD =           0.0000
               WELLS =           0.0000                 WELLS =           0.0000
       RIVER LEAKAGE =           0.0000         RIVER LEAKAGE =           0.0000
            RECHARGE =     3515609.0000              RECHARGE =       20261.7871

            TOTAL IN =     4333096.0000              TOTAL IN =       81081.4141

          OUT:                                     OUT:
          ----                                     ----
             STORAGE =      790712.7500               STORAGE =           0.0000
       CONSTANT HEAD =           0.0000         CONSTANT HEAD =           0.0000
               WELLS =       55529.9414                 WELLS =         509.4487
       RIVER LEAKAGE =     3486961.5000         RIVER LEAKAGE =       80571.1953
            RECHARGE =           0.0000              RECHARGE =           0.0000

           TOTAL OUT =     4333204.0000             TOTAL OUT =       81080.6406

            IN - OUT =        -108.0000              IN - OUT =           0.7734

 PERCENT DISCREPANCY =          -0.00     PERCENT DISCREPANCY =           0.00






         TIME SUMMARY AT END OF TIME STEP    8 IN STRESS PERIOD    3
                    SECONDS     MINUTES      HOURS       DAYS        YEARS
                    -----------------------------------------------------------
   TIME STEP LENGTH  86400.      1440.0      24.000      1.0000     2.73785E-03
 STRESS PERIOD TIME 6.91200E+05  11520.      192.00      8.0000     2.19028E-02
         TOTAL TIME 9.41760E+06 1.56960E+05  2616.0      109.00     0.29843    
1

 SOLVING FOR HEAD 

    ------------------------------------------------
       NWT REQUIRED            4 OUTER ITERATIONS 
       AND A TOTAL OF          4 INNER ITERATIONS.
    ------------------------------------------------

 OUTPUT CONTROL FOR STRESS PERIOD    3   TIME STEP    9
    SAVE HEAD FOR ALL LAYERS
    SAVE DRAWDOWN FOR ALL LAYERS
    SAVE BUDGET
    PRINT HEAD FOR ALL LAYERS
    PRINT BUDGET
1
              HEAD IN LAYER   1 AT END OF TIME STEP   9 IN STRESS PERIOD    3
  ---------------------------------------------------------------------------

            1           2           3           4           5           6           7           8           9          10
           11          12          13          14          15          16          17          18          19          20
 ........................................................................................................................
   1    0.000       0.000       0.000       0.000       0.000       10.60       10.46       10.89       11.58       11.51    
        10.27       7.394       2.264     -0.2635       5.891       21.65       32.00       37.54       0.000       0.000    
   2    0.000       0.000       0.000       0.000       8.408       7.988       7.193       7.882       9.378       9.658    
        8.790       6.613       2.628     -0.3194       8.474       23.40       33.70       39.60       0.000       0.000    
   3    0.000       0.000       0.000       6.377       6.053       4.120       3.275       3.864       5.300       5.851    
        5.501       4.458       2.853     -0.5029       14.24       26.18       37.14       43.86       0.000       0.000    
   4    0.000       0.000       3.661       3.973       2.786     -0.4440     -0.1887     -0.2651     -0.4803     -0.4260    
      -0.4173     -0.3359       1.421     -0.5361       19.17       32.45       42.19       50.82       0.000       0.000    
   5    0.000       0.000      0.6383     -1.5873E-02 -0.6754     -9.9989E-02   5.032       8.365       11.52       12.19    
        10.03     -5.7687E-02 -0.4967      0.9572       26.20       39.74       53.45       64.52       75.44       0.000    
   6    0.000     -0.5944     -0.6989     -0.3976       2.375       10.84       16.15       19.80       22.41       23.96    
        23.71       21.64       23.05       28.24       41.05       53.50       67.86       72.94       77.90       0.000    
   7    0.000       9.857       11.44       13.29       16.42       21.44       25.84       29.24       31.27       34.26    
        35.87       37.12       40.12       45.67       54.95       65.19       74.24       80.29       0.000       0.000    
   8    0.000       16.09       20.39       23.03       26.05       29.84       33.61       36.97       39.82       42.74    
        45.34       48.12       52.02       57.62       65.08       73.26       80.75       88.84       0.000       0.000    
   9    0.000       0.000       28.15       29.82       32.39       35.59       38.99       42.30       45.43       48.55    
        51.69       55.19       59.53       65.06       71.75       79.08       86.52       94.49       102.3       107.2    
  10    0.000       0.000       31.90       33.25       35.56       38.50       41.73       45.00       48.22       51.47    
        54.85       58.64       63.16       68.64       75.03       82.03       89.25       96.49       102.9       106.6    

 HEAD WILL BE SAVED ON UNIT   51 AT END OF TIME STEP    9, STRESS PERIOD    3

 DRAWDOWN WILL BE SAVED ON UNIT   52 AT END OF TIME STEP    9, STRESS PERIOD    3
1
  VOLUMETRIC BUDGET FOR ENTIRE MODEL AT END OF TIME STEP    9, STRESS PERIOD   3
  ------------------------------------------------------------------------------

     CUMULATIVE VOLUMES      L**3       RATES FOR THIS TIME STEP      L**3/T
     ------------------                 ------------------------

           IN:                                      IN:
           ---                                      ---
             STORAGE =      877714.5625               STORAGE =       60227.6641
       CONSTANT HEAD =           0.0000         CONSTANT HEAD =           0.0000
               WELLS =           0.0000                 WELLS =           0.0000
       RIVER LEAKAGE =           0.0000         RIVER LEAKAGE =           0.0000
            RECHARGE =     3535870.7500              RECHARGE =       20261.7871

            TOTAL IN =     4413585.5000              TOTAL IN =       80489.4531

          OUT:                                     OUT:
          ----                                     ----
             STORAGE =      790712.7500               STORAGE =           0.0000
       CONSTANT HEAD =           0.0000         CONSTANT HEAD =           0.0000
               WELLS =       56039.3906                 WELLS =         509.4487
       RIVER LEAKAGE =     3566940.7500         RIVER LEAKAGE =       79979.2422
            RECHARGE =           0.0000              RECHARGE =           0.0000

           TOTAL OUT =     4413693.0000             TOTAL OUT =       80488.6875

            IN - OUT =        -107.5000              IN - OUT =           0.7656

 PERCENT DISCREPANCY =          -0.00     PERCENT DISCREPANCY =           0.00






         TIME SUMMARY AT END OF TIME STEP    9 IN STRESS PERIOD    3
                    SECONDS     MINUTES      HOURS       DAYS        YEARS
                    -----------------------------------------------------------
   TIME STEP LENGTH  86400.      1440.0      24.000      1.0000     2.73785E-03
 STRESS PERIOD TIME 7.77600E+05  12960.      216.00      9.0000     2.46407E-02
         TOTAL TIME 9.50400E+06 1.58400E+05  2640.0      110.00     0.30116    
1

 SOLVING FOR HEAD 

    ------------------------------------------------
       NWT REQUIRED            4 OUTER ITERATIONS 
       AND A TOTAL OF          4 INNER ITERATIONS.
    ------------------------------------------------

 OUTPUT CONTROL FOR STRESS PERIOD    3   TIME STEP   10
    SAVE HEAD FOR ALL LAYERS
    SAVE DRAWDOWN FOR ALL LAYERS
    SAVE BUDGET
    PRINT HEAD FOR ALL LAYERS
    PRINT BUDGET
1
              HEAD IN LAYER   1 AT END OF TIME STEP  10 IN STRESS PERIOD    3
  ---------------------------------------------------------------------------

            1           2           3           4           5           6           7           8           9          10
           11          12          13          14          15          16          17          18          19          20
 ........................................................................................................................
   1    0.000       0.000       0.000       0.000       0.000       10.60       10.46       10.89       11.58       11.51    
        10.26       7.394       2.263     -0.2686       5.890       21.65       32.00       37.54       0.000       0.000    
   2    0.000       0.000       0.000       0.000       8.408       7.988       7.192       7.882       9.377       9.658    
        8.789       6.612       2.626     -0.3264       8.472       23.40       33.70       39.60       0.000       0.000    
   3    0.000       0.000       0.000       6.376       6.053       4.119       3.273       3.862       5.299       5.850    
        5.500       4.457       2.852     -0.5144       14.24       26.17       37.14       43.86       0.000       0.000    
   4    0.000       0.000       3.661       3.972       2.785     -0.4524     -0.1947     -0.2733     -0.4921     -0.4370    
      -0.4273     -0.3413       1.419     -0.5499       19.17       32.45       42.19       50.82       0.000       0.000    
   5    0.000       0.000      0.6318     -1.8202E-02 -0.6880     -0.1061       5.030       8.364       11.52       12.19    
        10.03     -6.5074E-02 -0.5116      0.9301       26.20       39.74       53.45       64.52       75.44       0.000    
   6    0.000     -0.6065     -0.7154     -0.4078       2.365       10.84       16.15       19.80       22.41       23.96    
        23.70       21.64       23.05       28.24       41.05       53.50       67.86       72.94       77.90       0.000    
   7    0.000       9.856       11.44       13.29       16.42       21.44       25.84       29.24       31.26       34.26    
        35.87       37.12       40.12       45.66       54.94       65.19       74.24       80.29       0.000       0.000    
   8    0.000       16.09       20.39       23.03       26.05       29.84       33.61       36.97       39.82       42.74    
        45.34       48.12       52.02       57.62       65.08       73.26       80.75       88.84       0.000       0.000    
   9    0.000       0.000       28.15       29.82       32.39       35.59       38.99       42.30       45.43       48.55    
        51.69       55.19       59.53       65.05       71.75       79.08       86.52       94.49       102.3       107.2    
  10    0.000       0.000       31.90       33.25       35.56       38.50       41.73       45.00       48.22       51.47    
        54.85       58.64       63.16       68.64       75.03       82.03       89.25       96.49       102.9       106.6    

 HEAD WILL BE SAVED ON UNIT   51 AT END OF TIME STEP   10, STRESS PERIOD    3

 DRAWDOWN WILL BE SAVED ON UNIT   52 AT END OF TIME STEP   10, STRESS PERIOD    3
1
  VOLUMETRIC BUDGET FOR ENTIRE MODEL AT END OF TIME STEP   10, STRESS PERIOD   3
  ------------------------------------------------------------------------------

     CUMULATIVE VOLUMES      L**3       RATES FOR THIS TIME STEP      L**3/T
     ------------------                 ------------------------

           IN:                                      IN:
           ---                                      ---
             STORAGE =      937358.0625               STORAGE =       59643.5039
       CONSTANT HEAD =           0.0000         CONSTANT HEAD =           0.0000
               WELLS =           0.0000                 WELLS =           0.0000
       RIVER LEAKAGE =           0.0000         RIVER LEAKAGE =           0.0000
            RECHARGE =     3556132.5000              RECHARGE =       20261.7871

            TOTAL IN =     4493490.5000              TOTAL IN =       79905.2891

          OUT:                                     OUT:
          ----                                     ----
             STORAGE =      790712.7500               STORAGE =           0.0000
       CONSTANT HEAD =           0.0000         CONSTANT HEAD =           0.0000
               WELLS =       56548.8398                 WELLS =         509.4487
       RIVER LEAKAGE =     3646335.7500         RIVER LEAKAGE =       79395.0938
            RECHARGE =           0.0000              RECHARGE =           0.0000

           TOTAL OUT =     4493597.5000             TOTAL OUT =       79904.5391

            IN - OUT =        -107.0000              IN - OUT =           0.7500

 PERCENT DISCREPANCY =          -0.00     PERCENT DISCREPANCY =           0.00






         TIME SUMMARY AT END OF TIME STEP   10 IN STRESS PERIOD    3
                    SECONDS     MINUTES      HOURS       DAYS        YEARS
                    -----------------------------------------------------------
   TIME STEP LENGTH  86400.      1440.0      24.000      1.0000     2.73785E-03
 STRESS PERIOD TIME 8.64000E+05  14400.      240.00      10.000     2.73785E-02
         TOTAL TIME 9.59040E+06 1.59840E+05  2664.0      111.00     0.30390    
1

 SOLVING FOR HEAD 

    ------------------------------------------------
       NWT REQUIRED            4 OUTER ITERATIONS 
       AND A TOTAL OF          4 INNER ITERATIONS.
    ------------------------------------------------

 OUTPUT CONTROL FOR STRESS PERIOD    3   TIME STEP   11
    SAVE HEAD FOR ALL LAYERS
    SAVE DRAWDOWN FOR ALL LAYERS
    SAVE BUDGET
    PRINT HEAD FOR ALL LAYERS
    PRINT BUDGET
1
              HEAD IN LAYER   1 AT END OF TIME STEP  11 IN STRESS PERIOD    3
  ---------------------------------------------------------------------------

            1           2           3           4           5           6           7           8           9          10
           11          12          13          14          15          16          17          18          19          20
 ........................................................................................................................
   1    0.000       0.000       0.000       0.000       0.000       10.60       10.46       10.89       11.58       11.51    
        10.26       7.393       2.262     -0.2735       5.889       21.65       32.00       37.54       0.000       0.000    
   2    0.000       0.000       0.000       0.000       8.407       7.987       7.191       7.881       9.376       9.657    
        8.789       6.611       2.625     -0.3334       8.471       23.40       33.69       39.60       0.000       0.000    
   3    0.000       0.000       0.000       6.376       6.052       4.118       3.272       3.861       5.298       5.849    
        5.499       4.456       2.851     -0.5259       14.24       26.17       37.14       43.86       0.000       0.000    
   4    0.000       0.000       3.660       3.971       2.784     -0.4608     -0.2006     -0.2815     -0.5037     -0.4479    
      -0.4373     -0.3466       1.418     -0.5636       19.17       32.45       42.19       50.82       0.000       0.000    
   5    0.000       0.000      0.6253     -2.0529E-02 -0.7005     -0.1122       5.029       8.362       11.52       12.19    
        10.03     -7.2405E-02 -0.5264      0.9040       26.20       39.74       53.45       64.52       75.44       0.000    
   6    0.000     -0.6184     -0.7316     -0.4180       2.355       10.84       16.15       19.80       22.41       23.96    
        23.70       21.64       23.05       28.24       41.05       53.50       67.86       72.94       77.90       0.000    
   7    0.000       9.855       11.44       13.29       16.42       21.44       25.84       29.23       31.26       34.26    
        35.87       37.12       40.12       45.66       54.94       65.19       74.24       80.29       0.000       0.000    
   8    0.000       16.08       20.39       23.03       26.05       29.84       33.61       36.97       39.82       42.74    
        45.34       48.12       52.02       57.61       65.08       73.25       80.75       88.84       0.000       0.000    
   9    0.000       0.000       28.14       29.82       32.39       35.59       38.99       42.30       45.43       48.55    
        51.69       55.19       59.53       65.05       71.74       79.08       86.52       94.49       102.3       107.2    
  10    0.000       0.000       31.90       33.25       35.56       38.50       41.73       45.00       48.22       51.47    
        54.85       58.64       63.16       68.64       75.03       82.03       89.25       96.49       102.9       106.6    

 HEAD WILL BE SAVED ON UNIT   51 AT END OF TIME STEP   11, STRESS PERIOD    3

 DRAWDOWN WILL BE SAVED ON UNIT   52 AT END OF TIME STEP   11, STRESS PERIOD    3
1
  VOLUMETRIC BUDGET FOR ENTIRE MODEL AT END OF TIME STEP   11, STRESS PERIOD   3
  ------------------------------------------------------------------------------

     CUMULATIVE VOLUMES      L**3       RATES FOR THIS TIME STEP      L**3/T
     ------------------                 ------------------------

           IN:                                      IN:
           ---                                      ---
             STORAGE =      996425.0625               STORAGE =       59067.0195
       CONSTANT HEAD =           0.0000         CONSTANT HEAD =           0.0000
               WELLS =           0.0000                 WELLS =           0.0000
       RIVER LEAKAGE =           0.0000         RIVER LEAKAGE =           0.0000
            RECHARGE =     3576394.2500              RECHARGE =       20261.7871

            TOTAL IN =     4572819.5000              TOTAL IN =       79328.8047

          OUT:                                     OUT:
          ----                                     ----
             STORAGE =      790712.7500               STORAGE =           0.0000
       CONSTANT HEAD =           0.0000         CONSTANT HEAD =           0.0000
               WELLS =       57058.2891                 WELLS =         509.4487
       RIVER LEAKAGE =     3725154.2500         RIVER LEAKAGE =       78818.6094
            RECHARGE =           0.0000              RECHARGE =           0.0000

           TOTAL OUT =     4572925.5000             TOTAL OUT =       79328.0547

            IN - OUT =        -106.0000              IN - OUT =           0.7500

 PERCENT DISCREPANCY =          -0.00     PERCENT DISCREPANCY =           0.00






         TIME SUMMARY AT END OF TIME STEP   11 IN STRESS PERIOD    3
                    SECONDS     MINUTES      HOURS       DAYS        YEARS
                    -----------------------------------------------------------
   TIME STEP LENGTH  86400.      1440.0      24.000      1.0000     2.73785E-03
 STRESS PERIOD TIME 9.50400E+05  15840.      264.00      11.000     3.01164E-02
         TOTAL TIME 9.67680E+06 1.61280E+05  2688.0      112.00     0.30664    
1

 SOLVING FOR HEAD 

    ------------------------------------------------
       NWT REQUIRED            4 OUTER ITERATIONS 
       AND A TOTAL OF          4 INNER ITERATIONS.
    ------------------------------------------------

 OUTPUT CONTROL FOR STRESS PERIOD    3   TIME STEP   12
    SAVE HEAD FOR ALL LAYERS
    SAVE DRAWDOWN FOR ALL LAYERS
    SAVE BUDGET
    PRINT HEAD FOR ALL LAYERS
    PRINT BUDGET
1
              HEAD IN LAYER   1 AT END OF TIME STEP  12 IN STRESS PERIOD    3
  ---------------------------------------------------------------------------

            1           2           3           4           5           6           7           8           9          10
           11          12          13          14          15          16          17          18          19          20
 ........................................................................................................................
   1    0.000       0.000       0.000       0.000       0.000       10.60       10.46       10.89       11.58       11.51    
        10.26       7.393       2.260     -0.2785       5.887       21.65       32.00       37.54       0.000       0.000    
   2    0.000       0.000       0.000       0.000       8.406       7.986       7.191       7.880       9.376       9.657    
        8.788       6.611       2.624     -0.3403       8.470       23.40       33.69       39.60       0.000       0.000    
   3    0.000       0.000       0.000       6.375       6.051       4.116       3.270       3.860       5.297       5.848    
        5.498       4.455       2.850     -0.5372       14.24       26.17       37.14       43.86       0.000       0.000    
   4    0.000       0.000       3.659       3.971       2.782     -0.4691     -0.2065     -0.2896     -0.5152     -0.4587    
      -0.4471     -0.3520       1.416     -0.5770       19.17       32.45       42.19       50.82       0.000       0.000    
   5    0.000       0.000      0.6188     -2.2857E-02 -0.7128     -0.1183       5.027       8.361       11.52       12.19    
        10.03     -7.9680E-02 -0.5409      0.8788       26.19       39.74       53.45       64.52       75.44       0.000    
   6    0.000     -0.6301     -0.7476     -0.4281       2.345       10.84       16.14       19.80       22.41       23.96    
        23.70       21.64       23.05       28.24       41.05       53.50       67.86       72.94       77.89       0.000    
   7    0.000       9.853       11.43       13.29       16.42       21.44       25.84       29.23       31.26       34.26    
        35.87       37.12       40.11       45.66       54.94       65.19       74.24       80.29       0.000       0.000    
   8    0.000       16.08       20.39       23.03       26.05       29.84       33.61       36.97       39.82       42.74    
        45.34       48.12       52.02       57.61       65.08       73.25       80.75       88.84       0.000       0.000    
   9    0.000       0.000       28.14       29.82       32.39       35.59       38.99       42.30       45.43       48.55    
        51.69       55.19       59.53       65.05       71.74       79.08       86.52       94.49       102.3       107.2    
  10    0.000       0.000       31.90       33.25       35.56       38.50       41.73       45.00       48.22       51.47    
        54.85       58.64       63.16       68.64       75.03       82.02       89.25       96.49       102.9       106.6    

 HEAD WILL BE SAVED ON UNIT   51 AT END OF TIME STEP   12, STRESS PERIOD    3

 DRAWDOWN WILL BE SAVED ON UNIT   52 AT END OF TIME STEP   12, STRESS PERIOD    3
1
  VOLUMETRIC BUDGET FOR ENTIRE MODEL AT END OF TIME STEP   12, STRESS PERIOD   3
  ------------------------------------------------------------------------------

     CUMULATIVE VOLUMES      L**3       RATES FOR THIS TIME STEP      L**3/T
     ------------------                 ------------------------

           IN:                                      IN:
           ---                                      ---
             STORAGE =     1054923.1250               STORAGE =       58498.0781
       CONSTANT HEAD =           0.0000         CONSTANT HEAD =           0.0000
               WELLS =           0.0000                 WELLS =           0.0000
       RIVER LEAKAGE =           0.0000         RIVER LEAKAGE =           0.0000
            RECHARGE =     3596656.0000              RECHARGE =       20261.7871

            TOTAL IN =     4651579.0000              TOTAL IN =       78759.8672

          OUT:                                     OUT:
          ----                                     ----
             STORAGE =      790712.7500               STORAGE =           0.0000
       CONSTANT HEAD =           0.0000         CONSTANT HEAD =           0.0000
               WELLS =       57567.7383                 WELLS =         509.4487
       RIVER LEAKAGE =     3803404.0000         RIVER LEAKAGE =       78249.6797
            RECHARGE =           0.0000              RECHARGE =           0.0000

           TOTAL OUT =     4651684.5000             TOTAL OUT =       78759.1250

            IN - OUT =        -105.5000              IN - OUT =           0.7422

 PERCENT DISCREPANCY =          -0.00     PERCENT DISCREPANCY =           0.00






         TIME SUMMARY AT END OF TIME STEP   12 IN STRESS PERIOD    3
                    SECONDS     MINUTES      HOURS       DAYS        YEARS
                    -----------------------------------------------------------
   TIME STEP LENGTH  86400.      1440.0      24.000      1.0000     2.73785E-03
 STRESS PERIOD TIME 1.03680E+06  17280.      288.00      12.000     3.28542E-02
         TOTAL TIME 9.76320E+06 1.62720E+05  2712.0      113.00     0.30938    
1

 SOLVING FOR HEAD 

    ------------------------------------------------
       NWT REQUIRED            4 OUTER ITERATIONS 
       AND A TOTAL OF          4 INNER ITERATIONS.
    ------------------------------------------------

 OUTPUT CONTROL FOR STRESS PERIOD    3   TIME STEP   13
    SAVE HEAD FOR ALL LAYERS
    SAVE DRAWDOWN FOR ALL LAYERS
    SAVE BUDGET
    PRINT HEAD FOR ALL LAYERS
    PRINT BUDGET
1
              HEAD IN LAYER   1 AT END OF TIME STEP  13 IN STRESS PERIOD    3
  ---------------------------------------------------------------------------

            1           2           3           4           5           6           7           8           9          10
           11          12          13          14          15          16          17          18          19          20
 ........................................................................................................................
   1    0.000       0.000       0.000       0.000       0.000       10.60       10.45       10.89       11.57       11.51    
        10.26       7.392       2.259     -0.2835       5.886       21.65       32.00       37.54       0.000       0.000    
   2    0.000       0.000       0.000       0.000       8.406       7.986       7.190       7.880       9.375       9.656    
        8.787       6.610       2.622     -0.3472       8.469       23.40       33.69       39.59       0.000       0.000    
   3    0.000       0.000       0.000       6.375       6.051       4.115       3.268       3.858       5.296       5.847    
        5.497       4.454       2.849     -0.5484       14.24       26.17       37.14       43.85       0.000       0.000    
   4    0.000       0.000       3.658       3.970       2.781     -0.4773     -0.2124     -0.2977     -0.5266     -0.4693    
      -0.4568     -0.3573       1.414     -0.5903       19.17       32.44       42.19       50.82       0.000       0.000    
   5    0.000       0.000      0.6124     -2.5183E-02 -0.7250     -0.1244       5.026       8.360       11.52       12.19    
        10.03     -8.6899E-02 -0.5552      0.8545       26.19       39.74       53.45       64.52       75.44       0.000    
   6    0.000     -0.6418     -0.7632     -0.4380       2.335       10.84       16.14       19.80       22.41       23.96    
        23.70       21.64       23.05       28.23       41.05       53.50       67.86       72.94       77.89       0.000    
   7    0.000       9.852       11.43       13.29       16.42       21.44       25.84       29.23       31.26       34.25    
        35.87       37.12       40.11       45.66       54.94       65.19       74.23       80.29       0.000       0.000    
   8    0.000       16.08       20.39       23.02       26.05       29.84       33.61       36.97       39.82       42.74    
        45.34       48.11       52.02       57.61       65.08       73.25       80.75       88.84       0.000       0.000    
   9    0.000       0.000       28.14       29.82       32.38       35.59       38.99       42.30       45.43       48.55    
        51.69       55.19       59.53       65.05       71.74       79.08       86.52       94.49       102.3       107.2    
  10    0.000       0.000       31.90       33.25       35.56       38.50       41.73       45.00       48.22       51.47    
        54.85       58.64       63.16       68.64       75.03       82.02       89.25       96.48       102.9       106.6    

 HEAD WILL BE SAVED ON UNIT   51 AT END OF TIME STEP   13, STRESS PERIOD    3

 DRAWDOWN WILL BE SAVED ON UNIT   52 AT END OF TIME STEP   13, STRESS PERIOD    3
1
  VOLUMETRIC BUDGET FOR ENTIRE MODEL AT END OF TIME STEP   13, STRESS PERIOD   3
  ------------------------------------------------------------------------------

     CUMULATIVE VOLUMES      L**3       RATES FOR THIS TIME STEP      L**3/T
     ------------------                 ------------------------

           IN:                                      IN:
           ---                                      ---
             STORAGE =     1112859.6250               STORAGE =       57936.5586
       CONSTANT HEAD =           0.0000         CONSTANT HEAD =           0.0000
               WELLS =           0.0000                 WELLS =           0.0000
       RIVER LEAKAGE =           0.0000         RIVER LEAKAGE =           0.0000
            RECHARGE =     3616917.7500              RECHARGE =       20261.7871

            TOTAL IN =     4729777.5000              TOTAL IN =       78198.3438

          OUT:                                     OUT:
          ----                                     ----
             STORAGE =      790712.7500               STORAGE =           0.0000
       CONSTANT HEAD =           0.0000         CONSTANT HEAD =           0.0000
               WELLS =       58077.1875                 WELLS =         509.4487
       RIVER LEAKAGE =     3881092.2500         RIVER LEAKAGE =       77688.1641
            RECHARGE =           0.0000              RECHARGE =           0.0000

           TOTAL OUT =     4729882.0000             TOTAL OUT =       78197.6094

            IN - OUT =        -104.5000              IN - OUT =           0.7344

 PERCENT DISCREPANCY =          -0.00     PERCENT DISCREPANCY =           0.00






         TIME SUMMARY AT END OF TIME STEP   13 IN STRESS PERIOD    3
                    SECONDS     MINUTES      HOURS       DAYS        YEARS
                    -----------------------------------------------------------
   TIME STEP LENGTH  86400.      1440.0      24.000      1.0000     2.73785E-03
 STRESS PERIOD TIME 1.12320E+06  18720.      312.00      13.000     3.55921E-02
         TOTAL TIME 9.84960E+06 1.64160E+05  2736.0      114.00     0.31211    
1

 SOLVING FOR HEAD 

    ------------------------------------------------
       NWT REQUIRED            4 OUTER ITERATIONS 
       AND A TOTAL OF          4 INNER ITERATIONS.
    ------------------------------------------------

 OUTPUT CONTROL FOR STRESS PERIOD    3   TIME STEP   14
    SAVE HEAD FOR ALL LAYERS
    SAVE DRAWDOWN FOR ALL LAYERS
    SAVE BUDGET
    PRINT HEAD FOR ALL LAYERS
    PRINT BUDGET
1
              HEAD IN LAYER   1 AT END OF TIME STEP  14 IN STRESS PERIOD    3
  ---------------------------------------------------------------------------

            1           2           3           4           5           6           7           8           9          10
           11          12          13          14          15          16          17          18          19          20
 ........................................................................................................................
   1    0.000       0.000       0.000       0.000       0.000       10.60       10.45       10.89       11.57       11.51    
        10.26       7.391       2.257     -0.2884       5.884       21.65       32.00       37.54       0.000       0.000    
   2    0.000       0.000       0.000       0.000       8.405       7.985       7.189       7.879       9.374       9.655    
        8.787       6.609       2.621     -0.3540       8.467       23.40       33.69       39.59       0.000       0.000    
   3    0.000       0.000       0.000       6.374       6.050       4.114       3.267       3.857       5.295       5.846    
        5.496       4.453       2.848     -0.5594       14.24       26.17       37.13       43.85       0.000       0.000    
   4    0.000       0.000       3.657       3.969       2.779     -0.4855     -0.2182     -0.3057     -0.5379     -0.4799    
      -0.4665     -0.3625       1.413     -0.6034       19.17       32.44       42.19       50.81       0.000       0.000    
   5    0.000       0.000      0.6060     -2.7509E-02 -0.7370     -0.1304       5.024       8.359       11.51       12.19    
        10.03     -9.4063E-02 -0.5692      0.8311       26.19       39.74       53.45       64.52       75.44       0.000    
   6    0.000     -0.6533     -0.7786     -0.4479       2.325       10.84       16.14       19.80       22.41       23.96    
        23.70       21.63       23.05       28.23       41.05       53.50       67.85       72.94       77.89       0.000    
   7    0.000       9.851       11.43       13.29       16.42       21.44       25.84       29.23       31.26       34.25    
        35.87       37.12       40.11       45.66       54.94       65.19       74.23       80.28       0.000       0.000    
   8    0.000       16.08       20.39       23.02       26.05       29.84       33.61       36.97       39.82       42.74    
        45.34       48.11       52.02       57.61       65.08       73.25       80.75       88.84       0.000       0.000    
   9    0.000       0.000       28.14       29.82       32.38       35.59       38.99       42.30       45.43       48.55    
        51.69       55.19       59.53       65.05       71.74       79.08       86.52       94.49       102.3       107.2    
  10    0.000       0.000       31.90       33.25       35.56       38.50       41.73       45.00       48.22       51.47    
        54.85       58.63       63.16       68.63       75.03       82.02       89.25       96.48       102.9       106.6    

 HEAD WILL BE SAVED ON UNIT   51 AT END OF TIME STEP   14, STRESS PERIOD    3

 DRAWDOWN WILL BE SAVED ON UNIT   52 AT END OF TIME STEP   14, STRESS PERIOD    3
1
  VOLUMETRIC BUDGET FOR ENTIRE MODEL AT END OF TIME STEP   14, STRESS PERIOD   3
  ------------------------------------------------------------------------------

     CUMULATIVE VOLUMES      L**3       RATES FOR THIS TIME STEP      L**3/T
     ------------------                 ------------------------

           IN:                                      IN:
           ---                                      ---
             STORAGE =     1170242.0000               STORAGE =       57382.3398
       CONSTANT HEAD =           0.0000         CONSTANT HEAD =           0.0000
               WELLS =           0.0000                 WELLS =           0.0000
       RIVER LEAKAGE =           0.0000         RIVER LEAKAGE =           0.0000
            RECHARGE =     3637179.5000              RECHARGE =       20261.7871

            TOTAL IN =     4807421.5000              TOTAL IN =       77644.1250

          OUT:                                     OUT:
          ----                                     ----
             STORAGE =      790712.7500               STORAGE =           0.0000
       CONSTANT HEAD =           0.0000         CONSTANT HEAD =           0.0000
               WELLS =       58586.6367                 WELLS =         509.4487
       RIVER LEAKAGE =     3958226.2500         RIVER LEAKAGE =       77133.9531
            RECHARGE =           0.0000              RECHARGE =           0.0000

           TOTAL OUT =     4807525.5000             TOTAL OUT =       77643.3984

            IN - OUT =        -104.0000              IN - OUT =           0.7266

 PERCENT DISCREPANCY =          -0.00     PERCENT DISCREPANCY =           0.00






         TIME SUMMARY AT END OF TIME STEP   14 IN STRESS PERIOD    3
                    SECONDS     MINUTES      HOURS       DAYS        YEARS
                    -----------------------------------------------------------
   TIME STEP LENGTH  86400.      1440.0      24.000      1.0000     2.73785E-03
 STRESS PERIOD TIME 1.20960E+06  20160.      336.00      14.000     3.83299E-02
         TOTAL TIME 9.93600E+06 1.65600E+05  2760.0      115.00     0.31485    
1

 SOLVING FOR HEAD 

    ------------------------------------------------
       NWT REQUIRED            4 OUTER ITERATIONS 
       AND A TOTAL OF          4 INNER ITERATIONS.
    ------------------------------------------------

 OUTPUT CONTROL FOR STRESS PERIOD    3   TIME STEP   15
    SAVE HEAD FOR ALL LAYERS
    SAVE DRAWDOWN FOR ALL LAYERS
    SAVE BUDGET
    PRINT HEAD FOR ALL LAYERS
    PRINT BUDGET
1
              HEAD IN LAYER   1 AT END OF TIME STEP  15 IN STRESS PERIOD    3
  ---------------------------------------------------------------------------

            1           2           3           4           5           6           7           8           9          10
           11          12          13          14          15          16          17          18          19          20
 ........................................................................................................................
   1    0.000       0.000       0.000       0.000       0.000       10.60       10.45       10.89       11.57       11.51    
        10.26       7.391       2.256     -0.2933       5.883       21.64       32.00       37.54       0.000       0.000    
   2    0.000       0.000       0.000       0.000       8.405       7.984       7.188       7.878       9.374       9.655    
        8.786       6.609       2.620     -0.3608       8.466       23.40       33.69       39.59       0.000       0.000    
   3    0.000       0.000       0.000       6.373       6.049       4.112       3.265       3.855       5.294       5.845    
        5.495       4.452       2.847     -0.5703       14.24       26.17       37.13       43.85       0.000       0.000    
   4    0.000       0.000       3.656       3.968       2.777     -0.4936     -0.2240     -0.3136     -0.5490     -0.4903    
      -0.4761     -0.3678       1.411     -0.6163       19.16       32.44       42.19       50.81       0.000       0.000    
   5    0.000       0.000      0.5997     -2.9833E-02 -0.7489     -0.1364       5.022       8.357       11.51       12.19    
        10.03     -0.1012     -0.5831      0.8085       26.19       39.74       53.45       64.52       75.44       0.000    
   6    0.000     -0.6646     -0.7937     -0.4577       2.316       10.84       16.14       19.80       22.41       23.96    
        23.70       21.63       23.05       28.23       41.05       53.50       67.85       72.94       77.89       0.000    
   7    0.000       9.850       11.43       13.29       16.42       21.43       25.84       29.23       31.26       34.25    
        35.87       37.12       40.11       45.66       54.94       65.19       74.23       80.28       0.000       0.000    
   8    0.000       16.08       20.39       23.02       26.05       29.84       33.61       36.96       39.82       42.74    
        45.34       48.11       52.02       57.61       65.08       73.25       80.75       88.84       0.000       0.000    
   9    0.000       0.000       28.14       29.82       32.38       35.59       38.99       42.30       45.43       48.55    
        51.69       55.19       59.53       65.05       71.74       79.08       86.52       94.49       102.3       107.2    
  10    0.000       0.000       31.90       33.25       35.56       38.50       41.72       45.00       48.22       51.47    
        54.85       58.63       63.16       68.63       75.03       82.02       89.25       96.48       102.9       106.6    

 HEAD WILL BE SAVED ON UNIT   51 AT END OF TIME STEP   15, STRESS PERIOD    3

 DRAWDOWN WILL BE SAVED ON UNIT   52 AT END OF TIME STEP   15, STRESS PERIOD    3
1
  VOLUMETRIC BUDGET FOR ENTIRE MODEL AT END OF TIME STEP   15, STRESS PERIOD   3
  ------------------------------------------------------------------------------

     CUMULATIVE VOLUMES      L**3       RATES FOR THIS TIME STEP      L**3/T
     ------------------                 ------------------------

           IN:                                      IN:
           ---                                      ---
             STORAGE =     1227077.2500               STORAGE =       56835.2969
       CONSTANT HEAD =           0.0000         CONSTANT HEAD =           0.0000
               WELLS =           0.0000                 WELLS =           0.0000
       RIVER LEAKAGE =           0.0000         RIVER LEAKAGE =           0.0000
            RECHARGE =     3657441.2500              RECHARGE =       20261.7871

            TOTAL IN =     4884518.5000              TOTAL IN =       77097.0859

          OUT:                                     OUT:
          ----                                     ----
             STORAGE =      790712.7500               STORAGE =           0.0000
       CONSTANT HEAD =           0.0000         CONSTANT HEAD =           0.0000
               WELLS =       59096.0859                 WELLS =         509.4487
       RIVER LEAKAGE =     4034813.2500         RIVER LEAKAGE =       76586.9219
            RECHARGE =           0.0000              RECHARGE =           0.0000

           TOTAL OUT =     4884622.0000             TOTAL OUT =       77096.3672

            IN - OUT =        -103.5000              IN - OUT =           0.7188

 PERCENT DISCREPANCY =          -0.00     PERCENT DISCREPANCY =           0.00






         TIME SUMMARY AT END OF TIME STEP   15 IN STRESS PERIOD    3
                    SECONDS     MINUTES      HOURS       DAYS        YEARS
                    -----------------------------------------------------------
   TIME STEP LENGTH  86400.      1440.0      24.000      1.0000     2.73785E-03
 STRESS PERIOD TIME 1.29600E+06  21600.      360.00      15.000     4.10678E-02
         TOTAL TIME 1.00224E+07 1.67040E+05  2784.0      116.00     0.31759    
1

 SOLVING FOR HEAD 

    ------------------------------------------------
       NWT REQUIRED            4 OUTER ITERATIONS 
       AND A TOTAL OF          4 INNER ITERATIONS.
    ------------------------------------------------

 OUTPUT CONTROL FOR STRESS PERIOD    3   TIME STEP   16
    SAVE HEAD FOR ALL LAYERS
    SAVE DRAWDOWN FOR ALL LAYERS
    SAVE BUDGET
    PRINT HEAD FOR ALL LAYERS
    PRINT BUDGET
1
              HEAD IN LAYER   1 AT END OF TIME STEP  16 IN STRESS PERIOD    3
  ---------------------------------------------------------------------------

            1           2           3           4           5           6           7           8           9          10
           11          12          13          14          15          16          17          18          19          20
 ........................................................................................................................
   1    0.000       0.000       0.000       0.000       0.000       10.60       10.45       10.89       11.57       11.51    
        10.26       7.390       2.254     -0.2982       5.881       21.64       32.00       37.54       0.000       0.000    
   2    0.000       0.000       0.000       0.000       8.404       7.984       7.188       7.878       9.373       9.654    
        8.786       6.608       2.618     -0.3675       8.464       23.40       33.69       39.59       0.000       0.000    
   3    0.000       0.000       0.000       6.373       6.049       4.111       3.264       3.854       5.293       5.844    
        5.494       4.451       2.846     -0.5811       14.23       26.17       37.13       43.85       0.000       0.000    
   4    0.000       0.000       3.656       3.967       2.776     -0.5016     -0.2298     -0.3214     -0.5599     -0.5006    
      -0.4855     -0.3730       1.409     -0.6290       19.16       32.44       42.18       50.81       0.000       0.000    
   5    0.000       0.000      0.5933     -3.2157E-02 -0.7606     -0.1423       5.021       8.356       11.51       12.19    
        10.02     -0.1082     -0.5967      0.7868       26.19       39.74       53.45       64.51       75.44       0.000    
   6    0.000     -0.6758     -0.8086     -0.4673       2.306       10.83       16.14       19.80       22.41       23.96    
        23.70       21.63       23.04       28.23       41.05       53.50       67.85       72.94       77.89       0.000    
   7    0.000       9.849       11.43       13.28       16.41       21.43       25.84       29.23       31.26       34.25    
        35.87       37.12       40.11       45.66       54.94       65.19       74.23       80.28       0.000       0.000    
   8    0.000       16.08       20.39       23.02       26.04       29.84       33.61       36.96       39.82       42.74    
        45.34       48.11       52.02       57.61       65.08       73.25       80.75       88.84       0.000       0.000    
   9    0.000       0.000       28.14       29.81       32.38       35.59       38.99       42.30       45.43       48.55    
        51.69       55.19       59.53       65.05       71.74       79.08       86.52       94.49       102.3       107.2    
  10    0.000       0.000       31.89       33.25       35.55       38.49       41.72       45.00       48.22       51.47    
        54.85       58.63       63.16       68.63       75.03       82.02       89.25       96.48       102.9       106.5    

 HEAD WILL BE SAVED ON UNIT   51 AT END OF TIME STEP   16, STRESS PERIOD    3

 DRAWDOWN WILL BE SAVED ON UNIT   52 AT END OF TIME STEP   16, STRESS PERIOD    3
1
  VOLUMETRIC BUDGET FOR ENTIRE MODEL AT END OF TIME STEP   16, STRESS PERIOD   3
  ------------------------------------------------------------------------------

     CUMULATIVE VOLUMES      L**3       RATES FOR THIS TIME STEP      L**3/T
     ------------------                 ------------------------

           IN:                                      IN:
           ---                                      ---
             STORAGE =     1283372.6250               STORAGE =       56295.3164
       CONSTANT HEAD =           0.0000         CONSTANT HEAD =           0.0000
               WELLS =           0.0000                 WELLS =           0.0000
       RIVER LEAKAGE =           0.0000         RIVER LEAKAGE =           0.0000
            RECHARGE =     3677703.0000              RECHARGE =       20261.7871

            TOTAL IN =     4961075.5000              TOTAL IN =       76557.1016

          OUT:                                     OUT:
          ----                                     ----
             STORAGE =      790712.7500               STORAGE =           0.0000
       CONSTANT HEAD =           0.0000         CONSTANT HEAD =           0.0000
               WELLS =       59605.5352                 WELLS =         509.4487
       RIVER LEAKAGE =     4110860.2500         RIVER LEAKAGE =       76046.9453
            RECHARGE =           0.0000              RECHARGE =           0.0000

           TOTAL OUT =     4961178.5000             TOTAL OUT =       76556.3906

            IN - OUT =        -103.0000              IN - OUT =           0.7109

 PERCENT DISCREPANCY =          -0.00     PERCENT DISCREPANCY =           0.00






         TIME SUMMARY AT END OF TIME STEP   16 IN STRESS PERIOD    3
                    SECONDS     MINUTES      HOURS       DAYS        YEARS
                    -----------------------------------------------------------
   TIME STEP LENGTH  86400.      1440.0      24.000      1.0000     2.73785E-03
 STRESS PERIOD TIME 1.38240E+06  23040.      384.00      16.000     4.38056E-02
         TOTAL TIME 1.01088E+07 1.68480E+05  2808.0      117.00     0.32033    
1

 SOLVING FOR HEAD 

    ------------------------------------------------
       NWT REQUIRED            3 OUTER ITERATIONS 
       AND A TOTAL OF          3 INNER ITERATIONS.
    ------------------------------------------------

 OUTPUT CONTROL FOR STRESS PERIOD    3   TIME STEP   17
    SAVE HEAD FOR ALL LAYERS
    SAVE DRAWDOWN FOR ALL LAYERS
    SAVE BUDGET
    PRINT HEAD FOR ALL LAYERS
    PRINT BUDGET
1
              HEAD IN LAYER   1 AT END OF TIME STEP  17 IN STRESS PERIOD    3
  ---------------------------------------------------------------------------

            1           2           3           4           5           6           7           8           9          10
           11          12          13          14          15          16          17          18          19          20
 ........................................................................................................................
   1    0.000       0.000       0.000       0.000       0.000       10.60       10.45       10.89       11.57       11.51    
        10.26       7.389       2.253     -0.3030       5.880       21.64       32.00       37.53       0.000       0.000    
   2    0.000       0.000       0.000       0.000       8.403       7.983       7.187       7.877       9.373       9.653    
        8.785       6.607       2.617     -0.3742       8.463       23.40       33.69       39.59       0.000       0.000    
   3    0.000       0.000       0.000       6.372       6.048       4.110       3.262       3.852       5.291       5.843    
        5.493       4.451       2.845     -0.5918       14.23       26.17       37.13       43.85       0.000       0.000    
   4    0.000       0.000       3.655       3.966       2.774     -0.5096     -0.2356     -0.3292     -0.5708     -0.5108    
      -0.4949     -0.3782       1.407     -0.6416       19.16       32.44       42.18       50.81       0.000       0.000    
   5    0.000       0.000      0.5870     -3.4481E-02 -0.7721     -0.1482       5.019       8.355       11.51       12.18    
        10.02     -0.1152     -0.6102      0.7658       26.19       39.74       53.45       64.51       75.44       0.000    
   6    0.000     -0.6869     -0.8232     -0.4769       2.296       10.83       16.14       19.79       22.41       23.96    
        23.70       21.63       23.04       28.23       41.04       53.50       67.85       72.94       77.89       0.000    
   7    0.000       9.848       11.43       13.28       16.41       21.43       25.84       29.23       31.26       34.25    
        35.87       37.12       40.11       45.66       54.94       65.19       74.23       80.28       0.000       0.000    
   8    0.000       16.08       20.39       23.02       26.04       29.84       33.61       36.96       39.82       42.73    
        45.34       48.11       52.01       57.61       65.08       73.25       80.75       88.84       0.000       0.000    
   9    0.000       0.000       28.14       29.81       32.38       35.59       38.99       42.30       45.43       48.55    
        51.69       55.18       59.53       65.05       71.74       79.07       86.52       94.49       102.3       107.2    
  10    0.000       0.000       31.89       33.25       35.55       38.49       41.72       44.99       48.22       51.47    
        54.85       58.63       63.16       68.63       75.03       82.02       89.25       96.48       102.9       106.5    

 HEAD WILL BE SAVED ON UNIT   51 AT END OF TIME STEP   17, STRESS PERIOD    3

 DRAWDOWN WILL BE SAVED ON UNIT   52 AT END OF TIME STEP   17, STRESS PERIOD    3
1
  VOLUMETRIC BUDGET FOR ENTIRE MODEL AT END OF TIME STEP   17, STRESS PERIOD   3
  ------------------------------------------------------------------------------

     CUMULATIVE VOLUMES      L**3       RATES FOR THIS TIME STEP      L**3/T
     ------------------                 ------------------------

           IN:                                      IN:
           ---                                      ---
             STORAGE =     1339148.1250               STORAGE =       55775.5195
       CONSTANT HEAD =           0.0000         CONSTANT HEAD =           0.0000
               WELLS =           0.0000                 WELLS =           0.0000
       RIVER LEAKAGE =           0.0000         RIVER LEAKAGE =           0.0000
            RECHARGE =     3697964.7500              RECHARGE =       20261.7871

            TOTAL IN =     5037113.0000              TOTAL IN =       76037.3047

          OUT:                                     OUT:
          ----                                     ----
             STORAGE =      790712.7500               STORAGE =           0.0000
       CONSTANT HEAD =           0.0000         CONSTANT HEAD =           0.0000
               WELLS =       60114.9844                 WELLS =         509.4487
       RIVER LEAKAGE =     4186374.0000         RIVER LEAKAGE =       75513.7891
            RECHARGE =           0.0000              RECHARGE =           0.0000

           TOTAL OUT =     5037202.0000             TOTAL OUT =       76023.2344

            IN - OUT =         -89.0000              IN - OUT =          14.0703

 PERCENT DISCREPANCY =          -0.00     PERCENT DISCREPANCY =           0.02






         TIME SUMMARY AT END OF TIME STEP   17 IN STRESS PERIOD    3
                    SECONDS     MINUTES      HOURS       DAYS        YEARS
                    -----------------------------------------------------------
   TIME STEP LENGTH  86400.      1440.0      24.000      1.0000     2.73785E-03
 STRESS PERIOD TIME 1.46880E+06  24480.      408.00      17.000     4.65435E-02
         TOTAL TIME 1.01952E+07 1.69920E+05  2832.0      118.00     0.32307    
1

 SOLVING FOR HEAD 

    ------------------------------------------------
       NWT REQUIRED            3 OUTER ITERATIONS 
       AND A TOTAL OF          3 INNER ITERATIONS.
    ------------------------------------------------

 OUTPUT CONTROL FOR STRESS PERIOD    3   TIME STEP   18
    SAVE HEAD FOR ALL LAYERS
    SAVE DRAWDOWN FOR ALL LAYERS
    SAVE BUDGET
    PRINT HEAD FOR ALL LAYERS
    PRINT BUDGET
1
              HEAD IN LAYER   1 AT END OF TIME STEP  18 IN STRESS PERIOD    3
  ---------------------------------------------------------------------------

            1           2           3           4           5           6           7           8           9          10
           11          12          13          14          15          16          17          18          19          20
 ........................................................................................................................
   1    0.000       0.000       0.000       0.000       0.000       10.60       10.45       10.89       11.57       11.51    
        10.26       7.389       2.251     -0.3079       5.878       21.64       32.00       37.53       0.000       0.000    
   2    0.000       0.000       0.000       0.000       8.403       7.982       7.186       7.876       9.372       9.653    
        8.784       6.607       2.616     -0.3808       8.462       23.40       33.69       39.59       0.000       0.000    
   3    0.000       0.000       0.000       6.371       6.047       4.108       3.260       3.851       5.290       5.842    
        5.492       4.450       2.844     -0.6023       14.23       26.17       37.13       43.85       0.000       0.000    
   4    0.000       0.000       3.654       3.965       2.773     -0.5174     -0.2413     -0.3370     -0.5815     -0.5209    
      -0.5042     -0.3834       1.405     -0.6540       19.16       32.44       42.18       50.81       0.000       0.000    
   5    0.000       0.000      0.5808     -3.6804E-02 -0.7835     -0.1541       5.018       8.354       11.51       12.18    
        10.02     -0.1222     -0.6234      0.7455       26.19       39.73       53.44       64.51       75.44       0.000    
   6    0.000     -0.6979     -0.8375     -0.4864       2.287       10.83       16.14       19.79       22.41       23.96    
        23.70       21.63       23.04       28.23       41.04       53.50       67.85       72.94       77.89       0.000    
   7    0.000       9.847       11.43       13.28       16.41       21.43       25.83       29.23       31.26       34.25    
        35.87       37.12       40.11       45.66       54.94       65.19       74.23       80.28       0.000       0.000    
   8    0.000       16.08       20.39       23.02       26.04       29.84       33.61       36.96       39.82       42.73    
        45.33       48.11       52.01       57.61       65.08       73.25       80.74       88.83       0.000       0.000    
   9    0.000       0.000       28.14       29.81       32.38       35.59       38.99       42.30       45.43       48.55    
        51.69       55.18       59.53       65.05       71.74       79.07       86.52       94.49       102.3       107.2    
  10    0.000       0.000       31.89       33.24       35.55       38.49       41.72       44.99       48.22       51.46    
        54.85       58.63       63.15       68.63       75.03       82.02       89.25       96.48       102.8       106.5    

 HEAD WILL BE SAVED ON UNIT   51 AT END OF TIME STEP   18, STRESS PERIOD    3

 DRAWDOWN WILL BE SAVED ON UNIT   52 AT END OF TIME STEP   18, STRESS PERIOD    3
1
  VOLUMETRIC BUDGET FOR ENTIRE MODEL AT END OF TIME STEP   18, STRESS PERIOD   3
  ------------------------------------------------------------------------------

     CUMULATIVE VOLUMES      L**3       RATES FOR THIS TIME STEP      L**3/T
     ------------------                 ------------------------

           IN:                                      IN:
           ---                                      ---
             STORAGE =     1394397.2500               STORAGE =       55249.0703
       CONSTANT HEAD =           0.0000         CONSTANT HEAD =           0.0000
               WELLS =           0.0000                 WELLS =           0.0000
       RIVER LEAKAGE =           0.0000         RIVER LEAKAGE =           0.0000
            RECHARGE =     3718226.5000              RECHARGE =       20261.7871

            TOTAL IN =     5112624.0000              TOTAL IN =       75510.8594

          OUT:                                     OUT:
          ----                                     ----
             STORAGE =      790712.7500               STORAGE =           0.0000
       CONSTANT HEAD =           0.0000         CONSTANT HEAD =           0.0000
               WELLS =       60624.4336                 WELLS =         509.4487
       RIVER LEAKAGE =     4261361.5000         RIVER LEAKAGE =       74987.4766
            RECHARGE =           0.0000              RECHARGE =           0.0000

           TOTAL OUT =     5112698.5000             TOTAL OUT =       75496.9219

            IN - OUT =         -74.5000              IN - OUT =          13.9375

 PERCENT DISCREPANCY =          -0.00     PERCENT DISCREPANCY =           0.02






         TIME SUMMARY AT END OF TIME STEP   18 IN STRESS PERIOD    3
                    SECONDS     MINUTES      HOURS       DAYS        YEARS
                    -----------------------------------------------------------
   TIME STEP LENGTH  86400.      1440.0      24.000      1.0000     2.73785E-03
 STRESS PERIOD TIME 1.55520E+06  25920.      432.00      18.000     4.92813E-02
         TOTAL TIME 1.02816E+07 1.71360E+05  2856.0      119.00     0.32580    
1

 SOLVING FOR HEAD 

    ------------------------------------------------
       NWT REQUIRED            3 OUTER ITERATIONS 
       AND A TOTAL OF          3 INNER ITERATIONS.
    ------------------------------------------------

 OUTPUT CONTROL FOR STRESS PERIOD    3   TIME STEP   19
    SAVE HEAD FOR ALL LAYERS
    SAVE DRAWDOWN FOR ALL LAYERS
    SAVE BUDGET
    PRINT HEAD FOR ALL LAYERS
    PRINT BUDGET
1
              HEAD IN LAYER   1 AT END OF TIME STEP  19 IN STRESS PERIOD    3
  ---------------------------------------------------------------------------

            1           2           3           4           5           6           7           8           9          10
           11          12          13          14          15          16          17          18          19          20
 ........................................................................................................................
   1    0.000       0.000       0.000       0.000       0.000       10.60       10.45       10.89       11.57       11.51    
        10.26       7.388       2.250     -0.3127       5.877       21.64       31.99       37.53       0.000       0.000    
   2    0.000       0.000       0.000       0.000       8.402       7.982       7.186       7.876       9.371       9.652    
        8.784       6.606       2.614     -0.3874       8.460       23.40       33.69       39.59       0.000       0.000    
   3    0.000       0.000       0.000       6.371       6.046       4.107       3.259       3.849       5.289       5.841    
        5.491       4.449       2.843     -0.6128       14.23       26.17       37.13       43.85       0.000       0.000    
   4    0.000       0.000       3.653       3.964       2.771     -0.5253     -0.2469     -0.3446     -0.5921     -0.5308    
      -0.5134     -0.3886       1.403     -0.6662       19.16       32.44       42.18       50.81       0.000       0.000    
   5    0.000       0.000      0.5745     -3.9125E-02 -0.7948     -0.1600       5.016       8.352       11.51       12.18    
        10.02     -0.1291     -0.6364      0.7260       26.18       39.73       53.44       64.51       75.44       0.000    
   6    0.000     -0.7087     -0.8516     -0.4958       2.278       10.83       16.14       19.79       22.41       23.96    
        23.70       21.63       23.04       28.23       41.04       53.49       67.85       72.94       77.89       0.000    
   7    0.000       9.845       11.43       13.28       16.41       21.43       25.83       29.23       31.26       34.25    
        35.87       37.12       40.11       45.66       54.94       65.19       74.23       80.28       0.000       0.000    
   8    0.000       16.08       20.39       23.02       26.04       29.84       33.61       36.96       39.82       42.73    
        45.33       48.11       52.01       57.61       65.08       73.25       80.74       88.83       0.000       0.000    
   9    0.000       0.000       28.14       29.81       32.38       35.58       38.99       42.29       45.43       48.55    
        51.69       55.18       59.53       65.05       71.74       79.07       86.52       94.49       102.3       107.2    
  10    0.000       0.000       31.89       33.24       35.55       38.49       41.72       44.99       48.22       51.46    
        54.85       58.63       63.15       68.63       75.03       82.02       89.24       96.48       102.8       106.5    

 HEAD WILL BE SAVED ON UNIT   51 AT END OF TIME STEP   19, STRESS PERIOD    3

 DRAWDOWN WILL BE SAVED ON UNIT   52 AT END OF TIME STEP   19, STRESS PERIOD    3
1
  VOLUMETRIC BUDGET FOR ENTIRE MODEL AT END OF TIME STEP   19, STRESS PERIOD   3
  ------------------------------------------------------------------------------

     CUMULATIVE VOLUMES      L**3       RATES FOR THIS TIME STEP      L**3/T
     ------------------                 ------------------------

           IN:                                      IN:
           ---                                      ---
             STORAGE =     1449126.6250               STORAGE =       54729.3477
       CONSTANT HEAD =           0.0000         CONSTANT HEAD =           0.0000
               WELLS =           0.0000                 WELLS =           0.0000
       RIVER LEAKAGE =           0.0000         RIVER LEAKAGE =           0.0000
            RECHARGE =     3738488.2500              RECHARGE =       20261.7871

            TOTAL IN =     5187615.0000              TOTAL IN =       74991.1328

          OUT:                                     OUT:
          ----                                     ----
             STORAGE =      790712.7500               STORAGE =           0.0000
       CONSTANT HEAD =           0.0000         CONSTANT HEAD =           0.0000
               WELLS =       61133.8828                 WELLS =         509.4487
       RIVER LEAKAGE =     4335829.5000         RIVER LEAKAGE =       74467.8906
            RECHARGE =           0.0000              RECHARGE =           0.0000

           TOTAL OUT =     5187676.0000             TOTAL OUT =       74977.3359

            IN - OUT =         -61.0000              IN - OUT =          13.7969

 PERCENT DISCREPANCY =          -0.00     PERCENT DISCREPANCY =           0.02






         TIME SUMMARY AT END OF TIME STEP   19 IN STRESS PERIOD    3
                    SECONDS     MINUTES      HOURS       DAYS        YEARS
                    -----------------------------------------------------------
   TIME STEP LENGTH  86400.      1440.0      24.000      1.0000     2.73785E-03
 STRESS PERIOD TIME 1.64160E+06  27360.      456.00      19.000     5.20192E-02
         TOTAL TIME 1.03680E+07 1.72800E+05  2880.0      120.00     0.32854    
1

 SOLVING FOR HEAD 

    ------------------------------------------------
       NWT REQUIRED            3 OUTER ITERATIONS 
       AND A TOTAL OF          3 INNER ITERATIONS.
    ------------------------------------------------

 OUTPUT CONTROL FOR STRESS PERIOD    3   TIME STEP   20
    SAVE HEAD FOR ALL LAYERS
    SAVE DRAWDOWN FOR ALL LAYERS
    SAVE BUDGET
    PRINT HEAD FOR ALL LAYERS
    PRINT BUDGET
1
              HEAD IN LAYER   1 AT END OF TIME STEP  20 IN STRESS PERIOD    3
  ---------------------------------------------------------------------------

            1           2           3           4           5           6           7           8           9          10
           11          12          13          14          15          16          17          18          19          20
 ........................................................................................................................
   1    0.000       0.000       0.000       0.000       0.000       10.60       10.45       10.89       11.57       11.50    
        10.26       7.387       2.248     -0.3175       5.875       21.64       31.99       37.53       0.000       0.000    
   2    0.000       0.000       0.000       0.000       8.402       7.981       7.185       7.875       9.371       9.652    
        8.783       6.605       2.613     -0.3940       8.459       23.40       33.69       39.59       0.000       0.000    
   3    0.000       0.000       0.000       6.370       6.046       4.105       3.257       3.847       5.288       5.840    
        5.490       4.448       2.841     -0.6231       14.23       26.17       37.13       43.85       0.000       0.000    
   4    0.000       0.000       3.652       3.963       2.769     -0.5330     -0.2526     -0.3522     -0.6026     -0.5407    
      -0.5225     -0.3937       1.401     -0.6782       19.16       32.44       42.18       50.81       0.000       0.000    
   5    0.000       0.000      0.5683     -4.1446E-02 -0.8059     -0.1658       5.014       8.351       11.51       12.18    
        10.02     -0.1359     -0.6492      0.7072       26.18       39.73       53.44       64.51       75.44       0.000    
   6    0.000     -0.7194     -0.8654     -0.5051       2.268       10.83       16.14       19.79       22.41       23.95    
        23.70       21.63       23.04       28.22       41.04       53.49       67.85       72.94       77.89       0.000    
   7    0.000       9.844       11.42       13.28       16.41       21.43       25.83       29.23       31.26       34.25    
        35.86       37.12       40.11       45.66       54.94       65.19       74.23       80.28       0.000       0.000    
   8    0.000       16.08       20.39       23.02       26.04       29.84       33.61       36.96       39.81       42.73    
        45.33       48.11       52.01       57.61       65.08       73.25       80.74       88.83       0.000       0.000    
   9    0.000       0.000       28.14       29.81       32.38       35.58       38.99       42.29       45.43       48.55    
        51.69       55.18       59.53       65.05       71.74       79.07       86.52       94.49       102.3       107.2    
  10    0.000       0.000       31.89       33.24       35.55       38.49       41.72       44.99       48.22       51.46    
        54.85       58.63       63.15       68.63       75.03       82.02       89.24       96.48       102.8       106.5    

 HEAD WILL BE SAVED ON UNIT   51 AT END OF TIME STEP   20, STRESS PERIOD    3

 DRAWDOWN WILL BE SAVED ON UNIT   52 AT END OF TIME STEP   20, STRESS PERIOD    3
1
  VOLUMETRIC BUDGET FOR ENTIRE MODEL AT END OF TIME STEP   20, STRESS PERIOD   3
  ------------------------------------------------------------------------------

     CUMULATIVE VOLUMES      L**3       RATES FOR THIS TIME STEP      L**3/T
     ------------------                 ------------------------

           IN:                                      IN:
           ---                                      ---
             STORAGE =     1503342.8750               STORAGE =       54216.2500
       CONSTANT HEAD =           0.0000         CONSTANT HEAD =           0.0000
               WELLS =           0.0000                 WELLS =           0.0000
       RIVER LEAKAGE =           0.0000         RIVER LEAKAGE =           0.0000
            RECHARGE =     3758750.0000              RECHARGE =       20261.7871

            TOTAL IN =     5262093.0000              TOTAL IN =       74478.0391

          OUT:                                     OUT:
          ----                                     ----
             STORAGE =      790712.7500               STORAGE =           0.0000
       CONSTANT HEAD =           0.0000         CONSTANT HEAD =           0.0000
               WELLS =       61643.3320                 WELLS =         509.4487
       RIVER LEAKAGE =     4409784.5000         RIVER LEAKAGE =       73954.9219
            RECHARGE =           0.0000              RECHARGE =           0.0000

           TOTAL OUT =     5262140.5000             TOTAL OUT =       74464.3672

            IN - OUT =         -47.5000              IN - OUT =          13.6719

 PERCENT DISCREPANCY =          -0.00     PERCENT DISCREPANCY =           0.02






         TIME SUMMARY AT END OF TIME STEP   20 IN STRESS PERIOD    3
                    SECONDS     MINUTES      HOURS       DAYS        YEARS
                    -----------------------------------------------------------
   TIME STEP LENGTH  86400.      1440.0      24.000      1.0000     2.73785E-03
 STRESS PERIOD TIME 1.72800E+06  28800.      480.00      20.000     5.47570E-02
         TOTAL TIME 1.04544E+07 1.74240E+05  2904.0      121.00     0.33128    
1

 SOLVING FOR HEAD 

    ------------------------------------------------
       NWT REQUIRED            3 OUTER ITERATIONS 
       AND A TOTAL OF          3 INNER ITERATIONS.
    ------------------------------------------------

 OUTPUT CONTROL FOR STRESS PERIOD    3   TIME STEP   21
    SAVE HEAD FOR ALL LAYERS
    SAVE DRAWDOWN FOR ALL LAYERS
    SAVE BUDGET
    PRINT HEAD FOR ALL LAYERS
    PRINT BUDGET
1
              HEAD IN LAYER   1 AT END OF TIME STEP  21 IN STRESS PERIOD    3
  ---------------------------------------------------------------------------

            1           2           3           4           5           6           7           8           9          10
           11          12          13          14          15          16          17          18          19          20
 ........................................................................................................................
   1    0.000       0.000       0.000       0.000       0.000       10.60       10.45       10.89       11.57       11.50    
        10.26       7.387       2.247     -0.3223       5.874       21.64       31.99       37.53       0.000       0.000    
   2    0.000       0.000       0.000       0.000       8.401       7.980       7.184       7.874       9.370       9.651    
        8.782       6.605       2.611     -0.4005       8.457       23.40       33.69       39.59       0.000       0.000    
   3    0.000       0.000       0.000       6.370       6.045       4.104       3.255       3.846       5.287       5.839    
        5.489       4.447       2.840     -0.6333       14.23       26.17       37.13       43.85       0.000       0.000    
   4    0.000       0.000       3.651       3.962       2.768     -0.5407     -0.2582     -0.3598     -0.6129     -0.5505    
      -0.5315     -0.3988       1.399     -0.6901       19.16       32.44       42.18       50.81       0.000       0.000    
   5    0.000       0.000      0.5621     -4.3766E-02 -0.8169     -0.1716       5.013       8.350       11.51       12.18    
        10.02     -0.1427     -0.6618      0.6890       26.18       39.73       53.44       64.51       75.44       0.000    
   6    0.000     -0.7300     -0.8790     -0.5143       2.259       10.83       16.14       19.79       22.40       23.95    
        23.70       21.63       23.04       28.22       41.04       53.49       67.85       72.93       77.89       0.000    
   7    0.000       9.843       11.42       13.28       16.41       21.43       25.83       29.23       31.26       34.25    
        35.86       37.11       40.11       45.66       54.94       65.19       74.23       80.28       0.000       0.000    
   8    0.000       16.08       20.39       23.02       26.04       29.84       33.61       36.96       39.81       42.73    
        45.33       48.11       52.01       57.61       65.08       73.25       80.74       88.83       0.000       0.000    
   9    0.000       0.000       28.14       29.81       32.38       35.58       38.99       42.29       45.43       48.55    
        51.69       55.18       59.53       65.05       71.74       79.07       86.52       94.49       102.3       107.2    
  10    0.000       0.000       31.89       33.24       35.55       38.49       41.72       44.99       48.22       51.46    
        54.85       58.63       63.15       68.63       75.03       82.02       89.24       96.48       102.8       106.5    

 HEAD WILL BE SAVED ON UNIT   51 AT END OF TIME STEP   21, STRESS PERIOD    3

 DRAWDOWN WILL BE SAVED ON UNIT   52 AT END OF TIME STEP   21, STRESS PERIOD    3
1
  VOLUMETRIC BUDGET FOR ENTIRE MODEL AT END OF TIME STEP   21, STRESS PERIOD   3
  ------------------------------------------------------------------------------

     CUMULATIVE VOLUMES      L**3       RATES FOR THIS TIME STEP      L**3/T
     ------------------                 ------------------------

           IN:                                      IN:
           ---                                      ---
             STORAGE =     1557052.5000               STORAGE =       53709.6680
       CONSTANT HEAD =           0.0000         CONSTANT HEAD =           0.0000
               WELLS =           0.0000                 WELLS =           0.0000
       RIVER LEAKAGE =           0.0000         RIVER LEAKAGE =           0.0000
            RECHARGE =     3779011.7500              RECHARGE =       20261.7871

            TOTAL IN =     5336064.0000              TOTAL IN =       73971.4531

          OUT:                                     OUT:
          ----                                     ----
             STORAGE =      790712.7500               STORAGE =           0.0000
       CONSTANT HEAD =           0.0000         CONSTANT HEAD =           0.0000
               WELLS =       62152.7812                 WELLS =         509.4487
       RIVER LEAKAGE =     4483233.0000         RIVER LEAKAGE =       73448.4609
            RECHARGE =           0.0000              RECHARGE =           0.0000

           TOTAL OUT =     5336098.5000             TOTAL OUT =       73957.9062

            IN - OUT =         -34.5000              IN - OUT =          13.5469

 PERCENT DISCREPANCY =          -0.00     PERCENT DISCREPANCY =           0.02






         TIME SUMMARY AT END OF TIME STEP   21 IN STRESS PERIOD    3
                    SECONDS     MINUTES      HOURS       DAYS        YEARS
                    -----------------------------------------------------------
   TIME STEP LENGTH  86400.      1440.0      24.000      1.0000     2.73785E-03
 STRESS PERIOD TIME 1.81440E+06  30240.      504.00      21.000     5.74949E-02
         TOTAL TIME 1.05408E+07 1.75680E+05  2928.0      122.00     0.33402    
1

 SOLVING FOR HEAD 

    ------------------------------------------------
       NWT REQUIRED            3 OUTER ITERATIONS 
       AND A TOTAL OF          3 INNER ITERATIONS.
    ------------------------------------------------

 OUTPUT CONTROL FOR STRESS PERIOD    3   TIME STEP   22
    SAVE HEAD FOR ALL LAYERS
    SAVE DRAWDOWN FOR ALL LAYERS
    SAVE BUDGET
    PRINT HEAD FOR ALL LAYERS
    PRINT BUDGET
1
              HEAD IN LAYER   1 AT END OF TIME STEP  22 IN STRESS PERIOD    3
  ---------------------------------------------------------------------------

            1           2           3           4           5           6           7           8           9          10
           11          12          13          14          15          16          17          18          19          20
 ........................................................................................................................
   1    0.000       0.000       0.000       0.000       0.000       10.60       10.45       10.89       11.57       11.50    
        10.26       7.386       2.245     -0.3270       5.872       21.64       31.99       37.53       0.000       0.000    
   2    0.000       0.000       0.000       0.000       8.400       7.980       7.183       7.874       9.369       9.650    
        8.782       6.604       2.610     -0.4069       8.456       23.40       33.69       39.59       0.000       0.000    
   3    0.000       0.000       0.000       6.369       6.044       4.103       3.253       3.844       5.286       5.838    
        5.487       4.446       2.839     -0.6433       14.23       26.17       37.13       43.85       0.000       0.000    
   4    0.000       0.000       3.650       3.962       2.766     -0.5484     -0.2638     -0.3673     -0.6232     -0.5601    
      -0.5404     -0.4039       1.397     -0.7018       19.16       32.44       42.18       50.81       0.000       0.000    
   5    0.000       0.000      0.5560     -4.6084E-02 -0.8278     -0.1773       5.011       8.348       11.51       12.18    
        10.02     -0.1494     -0.6743      0.6715       26.18       39.73       53.44       64.51       75.43       0.000    
   6    0.000     -0.7405     -0.8924     -0.5234       2.250       10.83       16.14       19.79       22.40       23.95    
        23.70       21.63       23.04       28.22       41.04       53.49       67.85       72.93       77.89       0.000    
   7    0.000       9.842       11.42       13.28       16.41       21.43       25.83       29.23       31.26       34.25    
        35.86       37.11       40.11       45.66       54.94       65.19       74.23       80.28       0.000       0.000    
   8    0.000       16.08       20.39       23.02       26.04       29.84       33.61       36.96       39.81       42.73    
        45.33       48.11       52.01       57.61       65.08       73.25       80.74       88.83       0.000       0.000    
   9    0.000       0.000       28.14       29.81       32.38       35.58       38.99       42.29       45.43       48.54    
        51.69       55.18       59.53       65.05       71.74       79.07       86.52       94.49       102.3       107.2    
  10    0.000       0.000       31.89       33.24       35.55       38.49       41.72       44.99       48.22       51.46    
        54.85       58.63       63.15       68.63       75.03       82.02       89.24       96.48       102.8       106.5    

 HEAD WILL BE SAVED ON UNIT   51 AT END OF TIME STEP   22, STRESS PERIOD    3

 DRAWDOWN WILL BE SAVED ON UNIT   52 AT END OF TIME STEP   22, STRESS PERIOD    3
1
  VOLUMETRIC BUDGET FOR ENTIRE MODEL AT END OF TIME STEP   22, STRESS PERIOD   3
  ------------------------------------------------------------------------------

     CUMULATIVE VOLUMES      L**3       RATES FOR THIS TIME STEP      L**3/T
     ------------------                 ------------------------

           IN:                                      IN:
           ---                                      ---
             STORAGE =     1610262.0000               STORAGE =       53209.5000
       CONSTANT HEAD =           0.0000         CONSTANT HEAD =           0.0000
               WELLS =           0.0000                 WELLS =           0.0000
       RIVER LEAKAGE =           0.0000         RIVER LEAKAGE =           0.0000
            RECHARGE =     3799273.5000              RECHARGE =       20261.7871

            TOTAL IN =     5409535.5000              TOTAL IN =       73471.2891

          OUT:                                     OUT:
          ----                                     ----
             STORAGE =      790712.7500               STORAGE =           0.0000
       CONSTANT HEAD =           0.0000         CONSTANT HEAD =           0.0000
               WELLS =       62662.2305                 WELLS =         509.4487
       RIVER LEAKAGE =     4556181.5000         RIVER LEAKAGE =       72948.4219
            RECHARGE =           0.0000              RECHARGE =           0.0000

           TOTAL OUT =     5409556.5000             TOTAL OUT =       73457.8672

            IN - OUT =         -21.0000              IN - OUT =          13.4219

 PERCENT DISCREPANCY =          -0.00     PERCENT DISCREPANCY =           0.02






         TIME SUMMARY AT END OF TIME STEP   22 IN STRESS PERIOD    3
                    SECONDS     MINUTES      HOURS       DAYS        YEARS
                    -----------------------------------------------------------
   TIME STEP LENGTH  86400.      1440.0      24.000      1.0000     2.73785E-03
 STRESS PERIOD TIME 1.90080E+06  31680.      528.00      22.000     6.02327E-02
         TOTAL TIME 1.06272E+07 1.77120E+05  2952.0      123.00     0.33676    
1

 SOLVING FOR HEAD 

    ------------------------------------------------
       NWT REQUIRED            3 OUTER ITERATIONS 
       AND A TOTAL OF          3 INNER ITERATIONS.
    ------------------------------------------------

 OUTPUT CONTROL FOR STRESS PERIOD    3   TIME STEP   23
    SAVE HEAD FOR ALL LAYERS
    SAVE DRAWDOWN FOR ALL LAYERS
    SAVE BUDGET
    PRINT HEAD FOR ALL LAYERS
    PRINT BUDGET
1
              HEAD IN LAYER   1 AT END OF TIME STEP  23 IN STRESS PERIOD    3
  ---------------------------------------------------------------------------

            1           2           3           4           5           6           7           8           9          10
           11          12          13          14          15          16          17          18          19          20
 ........................................................................................................................
   1    0.000       0.000       0.000       0.000       0.000       10.59       10.45       10.89       11.57       11.50    
        10.26       7.385       2.243     -0.3318       5.871       21.64       31.99       37.53       0.000       0.000    
   2    0.000       0.000       0.000       0.000       8.400       7.979       7.183       7.873       9.369       9.650    
        8.781       6.603       2.608     -0.4133       8.455       23.39       33.69       39.59       0.000       0.000    
   3    0.000       0.000       0.000       6.368       6.044       4.101       3.252       3.842       5.284       5.836    
        5.486       4.445       2.838     -0.6533       14.23       26.17       37.13       43.85       0.000       0.000    
   4    0.000       0.000       3.649       3.961       2.764     -0.5559     -0.2693     -0.3747     -0.6333     -0.5697    
      -0.5492     -0.4089       1.395     -0.7133       19.16       32.44       42.18       50.81       0.000       0.000    
   5    0.000       0.000      0.5499     -4.8401E-02 -0.8385     -0.1831       5.009       8.347       11.50       12.18    
        10.01     -0.1561     -0.6865      0.6546       26.18       39.73       53.44       64.51       75.43       0.000    
   6    0.000     -0.7508     -0.9055     -0.5325       2.241       10.83       16.14       19.79       22.40       23.95    
        23.70       21.62       23.04       28.22       41.04       53.49       67.85       72.93       77.89       0.000    
   7    0.000       9.840       11.42       13.28       16.41       21.43       25.83       29.23       31.26       34.25    
        35.86       37.11       40.11       45.66       54.94       65.18       74.23       80.28       0.000       0.000    
   8    0.000       16.08       20.38       23.02       26.04       29.84       33.61       36.96       39.81       42.73    
        45.33       48.11       52.01       57.61       65.08       73.25       80.74       88.83       0.000       0.000    
   9    0.000       0.000       28.14       29.81       32.38       35.58       38.98       42.29       45.43       48.54    
        51.69       55.18       59.53       65.05       71.74       79.07       86.52       94.49       102.3       107.2    
  10    0.000       0.000       31.89       33.24       35.55       38.49       41.72       44.99       48.22       51.46    
        54.84       58.63       63.15       68.63       75.03       82.02       89.24       96.48       102.8       106.5    

 HEAD WILL BE SAVED ON UNIT   51 AT END OF TIME STEP   23, STRESS PERIOD    3

 DRAWDOWN WILL BE SAVED ON UNIT   52 AT END OF TIME STEP   23, STRESS PERIOD    3
1
  VOLUMETRIC BUDGET FOR ENTIRE MODEL AT END OF TIME STEP   23, STRESS PERIOD   3
  ------------------------------------------------------------------------------

     CUMULATIVE VOLUMES      L**3       RATES FOR THIS TIME STEP      L**3/T
     ------------------                 ------------------------

           IN:                                      IN:
           ---                                      ---
             STORAGE =     1662977.6250               STORAGE =       52715.6406
       CONSTANT HEAD =           0.0000         CONSTANT HEAD =           0.0000
               WELLS =           0.0000                 WELLS =           0.0000
       RIVER LEAKAGE =           0.0000         RIVER LEAKAGE =           0.0000
            RECHARGE =     3819535.2500              RECHARGE =       20261.7871

            TOTAL IN =     5482513.0000              TOTAL IN =       72977.4297

          OUT:                                     OUT:
          ----                                     ----
             STORAGE =      790712.7500               STORAGE =           0.0000
       CONSTANT HEAD =           0.0000         CONSTANT HEAD =           0.0000
               WELLS =       63171.6797                 WELLS =         509.4487
       RIVER LEAKAGE =     4628636.0000         RIVER LEAKAGE =       72454.6875
            RECHARGE =           0.0000              RECHARGE =           0.0000

           TOTAL OUT =     5482520.5000             TOTAL OUT =       72964.1328

            IN - OUT =          -7.5000              IN - OUT =          13.2969

 PERCENT DISCREPANCY =          -0.00     PERCENT DISCREPANCY =           0.02






         TIME SUMMARY AT END OF TIME STEP   23 IN STRESS PERIOD    3
                    SECONDS     MINUTES      HOURS       DAYS        YEARS
                    -----------------------------------------------------------
   TIME STEP LENGTH  86400.      1440.0      24.000      1.0000     2.73785E-03
 STRESS PERIOD TIME 1.98720E+06  33120.      552.00      23.000     6.29706E-02
         TOTAL TIME 1.07136E+07 1.78560E+05  2976.0      124.00     0.33949    
1

 SOLVING FOR HEAD 

    ------------------------------------------------
       NWT REQUIRED            3 OUTER ITERATIONS 
       AND A TOTAL OF          3 INNER ITERATIONS.
    ------------------------------------------------

 OUTPUT CONTROL FOR STRESS PERIOD    3   TIME STEP   24
    SAVE HEAD FOR ALL LAYERS
    SAVE DRAWDOWN FOR ALL LAYERS
    SAVE BUDGET
    PRINT HEAD FOR ALL LAYERS
    PRINT BUDGET
1
              HEAD IN LAYER   1 AT END OF TIME STEP  24 IN STRESS PERIOD    3
  ---------------------------------------------------------------------------

            1           2           3           4           5           6           7           8           9          10
           11          12          13          14          15          16          17          18          19          20
 ........................................................................................................................
   1    0.000       0.000       0.000       0.000       0.000       10.59       10.45       10.88       11.57       11.50    
        10.26       7.385       2.242     -0.3365       5.869       21.64       31.99       37.53       0.000       0.000    
   2    0.000       0.000       0.000       0.000       8.399       7.978       7.182       7.872       9.368       9.649    
        8.781       6.603       2.607     -0.4197       8.453       23.39       33.69       39.59       0.000       0.000    
   3    0.000       0.000       0.000       6.368       6.043       4.100       3.250       3.841       5.283       5.835    
        5.485       4.444       2.837     -0.6631       14.23       26.17       37.13       43.85       0.000       0.000    
   4    0.000       0.000       3.648       3.960       2.762     -0.5634     -0.2748     -0.3821     -0.6433     -0.5791    
      -0.5580     -0.4140       1.393     -0.7247       19.15       32.44       42.18       50.81       0.000       0.000    
   5    0.000       0.000      0.5438     -5.0717E-02 -0.8490     -0.1888       5.008       8.346       11.50       12.18    
        10.01     -0.1628     -0.6986      0.6384       26.18       39.73       53.44       64.51       75.43       0.000    
   6    0.000     -0.7610     -0.9184     -0.5414       2.232       10.82       16.14       19.79       22.40       23.95    
        23.70       21.62       23.03       28.22       41.04       53.49       67.85       72.93       77.89       0.000    
   7    0.000       9.839       11.42       13.28       16.41       21.43       25.83       29.23       31.26       34.25    
        35.86       37.11       40.11       45.66       54.94       65.18       74.23       80.28       0.000       0.000    
   8    0.000       16.08       20.38       23.02       26.04       29.84       33.61       36.96       39.81       42.73    
        45.33       48.11       52.01       57.61       65.08       73.25       80.74       88.83       0.000       0.000    
   9    0.000       0.000       28.14       29.81       32.38       35.58       38.98       42.29       45.42       48.54    
        51.69       55.18       59.53       65.05       71.74       79.07       86.52       94.48       102.3       107.2    
  10    0.000       0.000       31.89       33.24       35.55       38.49       41.72       44.99       48.22       51.46    
        54.84       58.63       63.15       68.63       75.02       82.02       89.24       96.48       102.8       106.5    

 HEAD WILL BE SAVED ON UNIT   51 AT END OF TIME STEP   24, STRESS PERIOD    3

 DRAWDOWN WILL BE SAVED ON UNIT   52 AT END OF TIME STEP   24, STRESS PERIOD    3
1
  VOLUMETRIC BUDGET FOR ENTIRE MODEL AT END OF TIME STEP   24, STRESS PERIOD   3
  ------------------------------------------------------------------------------

     CUMULATIVE VOLUMES      L**3       RATES FOR THIS TIME STEP      L**3/T
     ------------------                 ------------------------

           IN:                                      IN:
           ---                                      ---
             STORAGE =     1715205.6250               STORAGE =       52227.9961
       CONSTANT HEAD =           0.0000         CONSTANT HEAD =           0.0000
               WELLS =           0.0000                 WELLS =           0.0000
       RIVER LEAKAGE =           0.0000         RIVER LEAKAGE =           0.0000
            RECHARGE =     3839797.0000              RECHARGE =       20261.7871

            TOTAL IN =     5555002.5000              TOTAL IN =       72489.7812

          OUT:                                     OUT:
          ----                                     ----
             STORAGE =      790712.7500               STORAGE =           0.0000
       CONSTANT HEAD =           0.0000         CONSTANT HEAD =           0.0000
               WELLS =       63681.1289                 WELLS =         509.4487
       RIVER LEAKAGE =     4700603.0000         RIVER LEAKAGE =       71967.1641
            RECHARGE =           0.0000              RECHARGE =           0.0000

           TOTAL OUT =     5554997.0000             TOTAL OUT =       72476.6094

            IN - OUT =           5.5000              IN - OUT =          13.1719

 PERCENT DISCREPANCY =           0.00     PERCENT DISCREPANCY =           0.02






         TIME SUMMARY AT END OF TIME STEP   24 IN STRESS PERIOD    3
                    SECONDS     MINUTES      HOURS       DAYS        YEARS
                    -----------------------------------------------------------
   TIME STEP LENGTH  86400.      1440.0      24.000      1.0000     2.73785E-03
 STRESS PERIOD TIME 2.07360E+06  34560.      576.00      24.000     6.57084E-02
         TOTAL TIME 1.08000E+07 1.80000E+05  3000.0      125.00     0.34223    
1

 SOLVING FOR HEAD 

    ------------------------------------------------
       NWT REQUIRED            3 OUTER ITERATIONS 
       AND A TOTAL OF          3 INNER ITERATIONS.
    ------------------------------------------------

 OUTPUT CONTROL FOR STRESS PERIOD    3   TIME STEP   25
    SAVE HEAD FOR ALL LAYERS
    SAVE DRAWDOWN FOR ALL LAYERS
    SAVE BUDGET
    PRINT HEAD FOR ALL LAYERS
    PRINT BUDGET
1
              HEAD IN LAYER   1 AT END OF TIME STEP  25 IN STRESS PERIOD    3
  ---------------------------------------------------------------------------

            1           2           3           4           5           6           7           8           9          10
           11          12          13          14          15          16          17          18          19          20
 ........................................................................................................................
   1    0.000       0.000       0.000       0.000       0.000       10.59       10.45       10.88       11.57       11.50    
        10.26       7.384       2.240     -0.3411       5.867       21.64       31.99       37.53       0.000       0.000    
   2    0.000       0.000       0.000       0.000       8.399       7.978       7.181       7.871       9.367       9.648    
        8.780       6.602       2.606     -0.4260       8.452       23.39       33.69       39.59       0.000       0.000    
   3    0.000       0.000       0.000       6.367       6.042       4.098       3.248       3.839       5.282       5.834    
        5.484       4.443       2.835     -0.6728       14.22       26.17       37.13       43.85       0.000       0.000    
   4    0.000       0.000       3.647       3.959       2.761     -0.5709     -0.2803     -0.3894     -0.6531     -0.5885    
      -0.5666     -0.4190       1.391     -0.7359       19.15       32.44       42.18       50.81       0.000       0.000    
   5    0.000       0.000      0.5377     -5.3032E-02 -0.8595     -0.1944       5.006       8.344       11.50       12.18    
        10.01     -0.1694     -0.7104      0.6227       26.18       39.73       53.44       64.51       75.43       0.000    
   6    0.000     -0.7711     -0.9311     -0.5503       2.224       10.82       16.14       19.79       22.40       23.95    
        23.69       21.62       23.03       28.22       41.04       53.49       67.85       72.93       77.89       0.000    
   7    0.000       9.838       11.42       13.27       16.40       21.43       25.83       29.23       31.26       34.25    
        35.86       37.11       40.11       45.66       54.94       65.18       74.23       80.28       0.000       0.000    
   8    0.000       16.08       20.38       23.02       26.04       29.83       33.61       36.96       39.81       42.73    
        45.33       48.11       52.01       57.61       65.07       73.25       80.74       88.83       0.000       0.000    
   9    0.000       0.000       28.14       29.81       32.38       35.58       38.98       42.29       45.42       48.54    
        51.69       55.18       59.52       65.05       71.74       79.07       86.51       94.48       102.3       107.2    
  10    0.000       0.000       31.89       33.24       35.55       38.49       41.72       44.99       48.22       51.46    
        54.84       58.63       63.15       68.63       75.02       82.02       89.24       96.48       102.8       106.5    

 HEAD WILL BE SAVED ON UNIT   51 AT END OF TIME STEP   25, STRESS PERIOD    3

 DRAWDOWN WILL BE SAVED ON UNIT   52 AT END OF TIME STEP   25, STRESS PERIOD    3
1
  VOLUMETRIC BUDGET FOR ENTIRE MODEL AT END OF TIME STEP   25, STRESS PERIOD   3
  ------------------------------------------------------------------------------

     CUMULATIVE VOLUMES      L**3       RATES FOR THIS TIME STEP      L**3/T
     ------------------                 ------------------------

           IN:                                      IN:
           ---                                      ---
             STORAGE =     1766952.1250               STORAGE =       51746.4648
       CONSTANT HEAD =           0.0000         CONSTANT HEAD =           0.0000
               WELLS =           0.0000                 WELLS =           0.0000
       RIVER LEAKAGE =           0.0000         RIVER LEAKAGE =           0.0000
            RECHARGE =     3860058.7500              RECHARGE =       20261.7871

            TOTAL IN =     5627011.0000              TOTAL IN =       72008.2500

          OUT:                                     OUT:
          ----                                     ----
             STORAGE =      790712.7500               STORAGE =           0.0000
       CONSTANT HEAD =           0.0000         CONSTANT HEAD =           0.0000
               WELLS =       64190.5781                 WELLS =         509.4487
       RIVER LEAKAGE =     4772089.0000         RIVER LEAKAGE =       71485.7578
            RECHARGE =           0.0000              RECHARGE =           0.0000

           TOTAL OUT =     5626992.5000             TOTAL OUT =       71995.2031

            IN - OUT =          18.5000              IN - OUT =          13.0469

 PERCENT DISCREPANCY =           0.00     PERCENT DISCREPANCY =           0.02






         TIME SUMMARY AT END OF TIME STEP   25 IN STRESS PERIOD    3
                    SECONDS     MINUTES      HOURS       DAYS        YEARS
                    -----------------------------------------------------------
   TIME STEP LENGTH  86400.      1440.0      24.000      1.0000     2.73785E-03
 STRESS PERIOD TIME 2.16000E+06  36000.      600.00      25.000     6.84463E-02
         TOTAL TIME 1.08864E+07 1.81440E+05  3024.0      126.00     0.34497    
1

 SOLVING FOR HEAD 

    ------------------------------------------------
       NWT REQUIRED            3 OUTER ITERATIONS 
       AND A TOTAL OF          3 INNER ITERATIONS.
    ------------------------------------------------

 OUTPUT CONTROL FOR STRESS PERIOD    3   TIME STEP   26
    SAVE HEAD FOR ALL LAYERS
    SAVE DRAWDOWN FOR ALL LAYERS
    SAVE BUDGET
    PRINT HEAD FOR ALL LAYERS
    PRINT BUDGET
1
              HEAD IN LAYER   1 AT END OF TIME STEP  26 IN STRESS PERIOD    3
  ---------------------------------------------------------------------------

            1           2           3           4           5           6           7           8           9          10
           11          12          13          14          15          16          17          18          19          20
 ........................................................................................................................
   1    0.000       0.000       0.000       0.000       0.000       10.59       10.45       10.88       11.57       11.50    
        10.26       7.383       2.239     -0.3458       5.866       21.64       31.99       37.53       0.000       0.000    
   2    0.000       0.000       0.000       0.000       8.398       7.977       7.180       7.871       9.367       9.648    
        8.779       6.601       2.604     -0.4323       8.450       23.39       33.69       39.59       0.000       0.000    
   3    0.000       0.000       0.000       6.366       6.042       4.097       3.246       3.837       5.281       5.833    
        5.483       4.442       2.834     -0.6825       14.22       26.16       37.13       43.85       0.000       0.000    
   4    0.000       0.000       3.646       3.958       2.759     -0.5782     -0.2858     -0.3966     -0.6629     -0.5977    
      -0.5752     -0.4240       1.389     -0.7470       19.15       32.44       42.18       50.81       0.000       0.000    
   5    0.000       0.000      0.5317     -5.5345E-02 -0.8698     -0.2001       5.004       8.343       11.50       12.17    
        10.01     -0.1759     -0.7221      0.6075       26.17       39.73       53.44       64.51       75.43       0.000    
   6    0.000     -0.7811     -0.9436     -0.5590       2.215       10.82       16.14       19.79       22.40       23.95    
        23.69       21.62       23.03       28.22       41.04       53.49       67.85       72.93       77.89       0.000    
   7    0.000       9.837       11.42       13.27       16.40       21.43       25.83       29.23       31.25       34.25    
        35.86       37.11       40.11       45.65       54.94       65.18       74.23       80.28       0.000       0.000    
   8    0.000       16.07       20.38       23.02       26.04       29.83       33.60       36.96       39.81       42.73    
        45.33       48.11       52.01       57.61       65.07       73.25       80.74       88.83       0.000       0.000    
   9    0.000       0.000       28.14       29.81       32.38       35.58       38.98       42.29       45.42       48.54    
        51.68       55.18       59.52       65.05       71.74       79.07       86.51       94.48       102.3       107.2    
  10    0.000       0.000       31.89       33.24       35.55       38.49       41.72       44.99       48.21       51.46    
        54.84       58.63       63.15       68.63       75.02       82.02       89.24       96.48       102.8       106.5    

 HEAD WILL BE SAVED ON UNIT   51 AT END OF TIME STEP   26, STRESS PERIOD    3

 DRAWDOWN WILL BE SAVED ON UNIT   52 AT END OF TIME STEP   26, STRESS PERIOD    3
1
  VOLUMETRIC BUDGET FOR ENTIRE MODEL AT END OF TIME STEP   26, STRESS PERIOD   3
  ------------------------------------------------------------------------------

     CUMULATIVE VOLUMES      L**3       RATES FOR THIS TIME STEP      L**3/T
     ------------------                 ------------------------

           IN:                                      IN:
           ---                                      ---
             STORAGE =     1818223.1250               STORAGE =       51270.9531
       CONSTANT HEAD =           0.0000         CONSTANT HEAD =           0.0000
               WELLS =           0.0000                 WELLS =           0.0000
       RIVER LEAKAGE =           0.0000         RIVER LEAKAGE =           0.0000
            RECHARGE =     3880320.5000              RECHARGE =       20261.7871

            TOTAL IN =     5698543.5000              TOTAL IN =       71532.7422

          OUT:                                     OUT:
          ----                                     ----
             STORAGE =      790712.7500               STORAGE =           0.0000
       CONSTANT HEAD =           0.0000         CONSTANT HEAD =           0.0000
               WELLS =       64700.0273                 WELLS =         509.4487
       RIVER LEAKAGE =     4843099.5000         RIVER LEAKAGE =       71010.3672
            RECHARGE =           0.0000              RECHARGE =           0.0000

           TOTAL OUT =     5698512.0000             TOTAL OUT =       71519.8125

            IN - OUT =          31.5000              IN - OUT =          12.9297

 PERCENT DISCREPANCY =           0.00     PERCENT DISCREPANCY =           0.02






         TIME SUMMARY AT END OF TIME STEP   26 IN STRESS PERIOD    3
                    SECONDS     MINUTES      HOURS       DAYS        YEARS
                    -----------------------------------------------------------
   TIME STEP LENGTH  86400.      1440.0      24.000      1.0000     2.73785E-03
 STRESS PERIOD TIME 2.24640E+06  37440.      624.00      26.000     7.11841E-02
         TOTAL TIME 1.09728E+07 1.82880E+05  3048.0      127.00     0.34771    
1

 SOLVING FOR HEAD 

    ------------------------------------------------
       NWT REQUIRED            3 OUTER ITERATIONS 
       AND A TOTAL OF          3 INNER ITERATIONS.
    ------------------------------------------------

 OUTPUT CONTROL FOR STRESS PERIOD    3   TIME STEP   27
    SAVE HEAD FOR ALL LAYERS
    SAVE DRAWDOWN FOR ALL LAYERS
    SAVE BUDGET
    PRINT HEAD FOR ALL LAYERS
    PRINT BUDGET
1
              HEAD IN LAYER   1 AT END OF TIME STEP  27 IN STRESS PERIOD    3
  ---------------------------------------------------------------------------

            1           2           3           4           5           6           7           8           9          10
           11          12          13          14          15          16          17          18          19          20
 ........................................................................................................................
   1    0.000       0.000       0.000       0.000       0.000       10.59       10.45       10.88       11.57       11.50    
        10.25       7.383       2.237     -0.3505       5.864       21.64       31.99       37.53       0.000       0.000    
   2    0.000       0.000       0.000       0.000       8.397       7.976       7.180       7.870       9.366       9.647    
        8.779       6.601       2.603     -0.4386       8.449       23.39       33.69       39.59       0.000       0.000    
   3    0.000       0.000       0.000       6.366       6.041       4.095       3.244       3.836       5.279       5.832    
        5.482       4.441       2.833     -0.6920       14.22       26.16       37.13       43.85       0.000       0.000    
   4    0.000       0.000       3.646       3.957       2.757     -0.5856     -0.2912     -0.4038     -0.6725     -0.6069    
      -0.5837     -0.4290       1.387     -0.7579       19.15       32.44       42.18       50.81       0.000       0.000    
   5    0.000       0.000      0.5257     -5.7657E-02 -0.8799     -0.2057       5.002       8.341       11.50       12.17    
        10.01     -0.1824     -0.7336      0.5929       26.17       39.73       53.44       64.51       75.43       0.000    
   6    0.000     -0.7910     -0.9558     -0.5677       2.207       10.82       16.13       19.79       22.40       23.95    
        23.69       21.62       23.03       28.21       41.04       53.49       67.85       72.93       77.89       0.000    
   7    0.000       9.835       11.41       13.27       16.40       21.43       25.83       29.23       31.25       34.25    
        35.86       37.11       40.11       45.65       54.93       65.18       74.23       80.28       0.000       0.000    
   8    0.000       16.07       20.38       23.02       26.04       29.83       33.60       36.96       39.81       42.73    
        45.33       48.11       52.01       57.60       65.07       73.25       80.74       88.83       0.000       0.000    
   9    0.000       0.000       28.14       29.81       32.38       35.58       38.98       42.29       45.42       48.54    
        51.68       55.18       59.52       65.04       71.74       79.07       86.51       94.48       102.3       107.2    
  10    0.000       0.000       31.89       33.24       35.55       38.49       41.72       44.99       48.21       51.46    
        54.84       58.63       63.15       68.63       75.02       82.02       89.24       96.48       102.8       106.5    

 HEAD WILL BE SAVED ON UNIT   51 AT END OF TIME STEP   27, STRESS PERIOD    3

 DRAWDOWN WILL BE SAVED ON UNIT   52 AT END OF TIME STEP   27, STRESS PERIOD    3
1
  VOLUMETRIC BUDGET FOR ENTIRE MODEL AT END OF TIME STEP   27, STRESS PERIOD   3
  ------------------------------------------------------------------------------

     CUMULATIVE VOLUMES      L**3       RATES FOR THIS TIME STEP      L**3/T
     ------------------                 ------------------------

           IN:                                      IN:
           ---                                      ---
             STORAGE =     1869024.5000               STORAGE =       50801.3711
       CONSTANT HEAD =           0.0000         CONSTANT HEAD =           0.0000
               WELLS =           0.0000                 WELLS =           0.0000
       RIVER LEAKAGE =           0.0000         RIVER LEAKAGE =           0.0000
            RECHARGE =     3900582.2500              RECHARGE =       20261.7871

            TOTAL IN =     5769607.0000              TOTAL IN =       71063.1562

          OUT:                                     OUT:
          ----                                     ----
             STORAGE =      790712.7500               STORAGE =           0.0000
       CONSTANT HEAD =           0.0000         CONSTANT HEAD =           0.0000
               WELLS =       65209.4766                 WELLS =         509.4487
       RIVER LEAKAGE =     4913640.5000         RIVER LEAKAGE =       70540.8984
            RECHARGE =           0.0000              RECHARGE =           0.0000

           TOTAL OUT =     5769563.0000             TOTAL OUT =       71050.3438

            IN - OUT =          44.0000              IN - OUT =          12.8125

 PERCENT DISCREPANCY =           0.00     PERCENT DISCREPANCY =           0.02






         TIME SUMMARY AT END OF TIME STEP   27 IN STRESS PERIOD    3
                    SECONDS     MINUTES      HOURS       DAYS        YEARS
                    -----------------------------------------------------------
   TIME STEP LENGTH  86400.      1440.0      24.000      1.0000     2.73785E-03
 STRESS PERIOD TIME 2.33280E+06  38880.      648.00      27.000     7.39220E-02
         TOTAL TIME 1.10592E+07 1.84320E+05  3072.0      128.00     0.35044    
1

 SOLVING FOR HEAD 

    ------------------------------------------------
       NWT REQUIRED            3 OUTER ITERATIONS 
       AND A TOTAL OF          3 INNER ITERATIONS.
    ------------------------------------------------

 OUTPUT CONTROL FOR STRESS PERIOD    3   TIME STEP   28
    SAVE HEAD FOR ALL LAYERS
    SAVE DRAWDOWN FOR ALL LAYERS
    SAVE BUDGET
    PRINT HEAD FOR ALL LAYERS
    PRINT BUDGET
1
              HEAD IN LAYER   1 AT END OF TIME STEP  28 IN STRESS PERIOD    3
  ---------------------------------------------------------------------------

            1           2           3           4           5           6           7           8           9          10
           11          12          13          14          15          16          17          18          19          20
 ........................................................................................................................
   1    0.000       0.000       0.000       0.000       0.000       10.59       10.45       10.88       11.57       11.50    
        10.25       7.382       2.235     -0.3551       5.863       21.64       31.99       37.53       0.000       0.000    
   2    0.000       0.000       0.000       0.000       8.397       7.976       7.179       7.869       9.366       9.647    
        8.778       6.600       2.601     -0.4448       8.447       23.39       33.68       39.59       0.000       0.000    
   3    0.000       0.000       0.000       6.365       6.040       4.094       3.243       3.834       5.278       5.831    
        5.481       4.440       2.832     -0.7013       14.22       26.16       37.13       43.85       0.000       0.000    
   4    0.000       0.000       3.645       3.956       2.755     -0.5928     -0.2966     -0.4109     -0.6821     -0.6159    
      -0.5921     -0.4339       1.385     -0.7687       19.15       32.44       42.18       50.81       0.000       0.000    
   5    0.000       0.000      0.5197     -5.9968E-02 -0.8900     -0.2113       5.001       8.340       11.50       12.17    
        10.01     -0.1888     -0.7449      0.5788       26.17       39.73       53.44       64.51       75.43       0.000    
   6    0.000     -0.8007     -0.9678     -0.5763       2.198       10.82       16.13       19.79       22.40       23.95    
        23.69       21.62       23.03       28.21       41.04       53.49       67.85       72.93       77.89       0.000    
   7    0.000       9.834       11.41       13.27       16.40       21.43       25.83       29.22       31.25       34.25    
        35.86       37.11       40.10       45.65       54.93       65.18       74.23       80.28       0.000       0.000    
   8    0.000       16.07       20.38       23.02       26.04       29.83       33.60       36.96       39.81       42.73    
        45.33       48.11       52.01       57.60       65.07       73.24       80.74       88.83       0.000       0.000    
   9    0.000       0.000       28.13       29.81       32.38       35.58       38.98       42.29       45.42       48.54    
        51.68       55.18       59.52       65.04       71.73       79.07       86.51       94.48       102.3       107.2    
  10    0.000       0.000       31.89       33.24       35.55       38.49       41.72       44.99       48.21       51.46    
        54.84       58.63       63.15       68.63       75.02       82.02       89.24       96.48       102.8       106.5    

 HEAD WILL BE SAVED ON UNIT   51 AT END OF TIME STEP   28, STRESS PERIOD    3

 DRAWDOWN WILL BE SAVED ON UNIT   52 AT END OF TIME STEP   28, STRESS PERIOD    3
1
  VOLUMETRIC BUDGET FOR ENTIRE MODEL AT END OF TIME STEP   28, STRESS PERIOD   3
  ------------------------------------------------------------------------------

     CUMULATIVE VOLUMES      L**3       RATES FOR THIS TIME STEP      L**3/T
     ------------------                 ------------------------

           IN:                                      IN:
           ---                                      ---
             STORAGE =     1919362.1250               STORAGE =       50337.6211
       CONSTANT HEAD =           0.0000         CONSTANT HEAD =           0.0000
               WELLS =           0.0000                 WELLS =           0.0000
       RIVER LEAKAGE =           0.0000         RIVER LEAKAGE =           0.0000
            RECHARGE =     3920844.0000              RECHARGE =       20261.7871

            TOTAL IN =     5840206.0000              TOTAL IN =       70599.4062

          OUT:                                     OUT:
          ----                                     ----
             STORAGE =      790712.7500               STORAGE =           0.0000
       CONSTANT HEAD =           0.0000         CONSTANT HEAD =           0.0000
               WELLS =       65718.9219                 WELLS =         509.4487
       RIVER LEAKAGE =     4983718.0000         RIVER LEAKAGE =       70077.2656
            RECHARGE =           0.0000              RECHARGE =           0.0000

           TOTAL OUT =     5840149.5000             TOTAL OUT =       70586.7109

            IN - OUT =          56.5000              IN - OUT =          12.6953

 PERCENT DISCREPANCY =           0.00     PERCENT DISCREPANCY =           0.02






         TIME SUMMARY AT END OF TIME STEP   28 IN STRESS PERIOD    3
                    SECONDS     MINUTES      HOURS       DAYS        YEARS
                    -----------------------------------------------------------
   TIME STEP LENGTH  86400.      1440.0      24.000      1.0000     2.73785E-03
 STRESS PERIOD TIME 2.41920E+06  40320.      672.00      28.000     7.66598E-02
         TOTAL TIME 1.11456E+07 1.85760E+05  3096.0      129.00     0.35318    
1

 SOLVING FOR HEAD 

    ------------------------------------------------
       NWT REQUIRED            3 OUTER ITERATIONS 
       AND A TOTAL OF          3 INNER ITERATIONS.
    ------------------------------------------------

 OUTPUT CONTROL FOR STRESS PERIOD    3   TIME STEP   29
    SAVE HEAD FOR ALL LAYERS
    SAVE DRAWDOWN FOR ALL LAYERS
    SAVE BUDGET
    PRINT HEAD FOR ALL LAYERS
    PRINT BUDGET
1
              HEAD IN LAYER   1 AT END OF TIME STEP  29 IN STRESS PERIOD    3
  ---------------------------------------------------------------------------

            1           2           3           4           5           6           7           8           9          10
           11          12          13          14          15          16          17          18          19          20
 ........................................................................................................................
   1    0.000       0.000       0.000       0.000       0.000       10.59       10.44       10.88       11.57       11.50    
        10.25       7.381       2.234     -0.3597       5.861       21.64       31.99       37.53       0.000       0.000    
   2    0.000       0.000       0.000       0.000       8.396       7.975       7.178       7.869       9.365       9.646    
        8.777       6.599       2.599     -0.4509       8.445       23.39       33.68       39.59       0.000       0.000    
   3    0.000       0.000       0.000       6.365       6.039       4.092       3.241       3.832       5.277       5.829    
        5.479       4.439       2.831     -0.7106       14.22       26.16       37.13       43.85       0.000       0.000    
   4    0.000       0.000       3.644       3.955       2.753     -0.6000     -0.3020     -0.4180     -0.6915     -0.6249    
      -0.6004     -0.4388       1.383     -0.7793       19.15       32.43       42.18       50.81       0.000       0.000    
   5    0.000       0.000      0.5138     -6.2277E-02 -0.8999     -0.2168       4.999       8.339       11.50       12.17    
        10.00     -0.1952     -0.7561      0.5652       26.17       39.73       53.44       64.51       75.43       0.000    
   6    0.000     -0.8103     -0.9796     -0.5848       2.190       10.82       16.13       19.79       22.40       23.95    
        23.69       21.62       23.03       28.21       41.04       53.49       67.85       72.93       77.88       0.000    
   7    0.000       9.833       11.41       13.27       16.40       21.43       25.83       29.22       31.25       34.25    
        35.86       37.11       40.10       45.65       54.93       65.18       74.23       80.28       0.000       0.000    
   8    0.000       16.07       20.38       23.01       26.04       29.83       33.60       36.96       39.81       42.73    
        45.33       48.11       52.01       57.60       65.07       73.24       80.74       88.83       0.000       0.000    
   9    0.000       0.000       28.13       29.81       32.38       35.58       38.98       42.29       45.42       48.54    
        51.68       55.18       59.52       65.04       71.73       79.07       86.51       94.48       102.3       107.2    
  10    0.000       0.000       31.89       33.24       35.55       38.49       41.72       44.99       48.21       51.46    
        54.84       58.63       63.15       68.63       75.02       82.01       89.24       96.47       102.8       106.5    

 HEAD WILL BE SAVED ON UNIT   51 AT END OF TIME STEP   29, STRESS PERIOD    3

 DRAWDOWN WILL BE SAVED ON UNIT   52 AT END OF TIME STEP   29, STRESS PERIOD    3
1
  VOLUMETRIC BUDGET FOR ENTIRE MODEL AT END OF TIME STEP   29, STRESS PERIOD   3
  ------------------------------------------------------------------------------

     CUMULATIVE VOLUMES      L**3       RATES FOR THIS TIME STEP      L**3/T
     ------------------                 ------------------------

           IN:                                      IN:
           ---                                      ---
             STORAGE =     1969241.7500               STORAGE =       49879.6172
       CONSTANT HEAD =           0.0000         CONSTANT HEAD =           0.0000
               WELLS =           0.0000                 WELLS =           0.0000
       RIVER LEAKAGE =           0.0000         RIVER LEAKAGE =           0.0000
            RECHARGE =     3941105.7500              RECHARGE =       20261.7871

            TOTAL IN =     5910347.5000              TOTAL IN =       70141.4062

          OUT:                                     OUT:
          ----                                     ----
             STORAGE =      790712.7500               STORAGE =           0.0000
       CONSTANT HEAD =           0.0000         CONSTANT HEAD =           0.0000
               WELLS =       66228.3672                 WELLS =         509.4487
       RIVER LEAKAGE =     5053337.5000         RIVER LEAKAGE =       69619.3828
            RECHARGE =           0.0000              RECHARGE =           0.0000

           TOTAL OUT =     5910278.5000             TOTAL OUT =       70128.8281

            IN - OUT =          69.0000              IN - OUT =          12.5781

 PERCENT DISCREPANCY =           0.00     PERCENT DISCREPANCY =           0.02






         TIME SUMMARY AT END OF TIME STEP   29 IN STRESS PERIOD    3
                    SECONDS     MINUTES      HOURS       DAYS        YEARS
                    -----------------------------------------------------------
   TIME STEP LENGTH  86400.      1440.0      24.000      1.0000     2.73785E-03
 STRESS PERIOD TIME 2.50560E+06  41760.      696.00      29.000     7.93977E-02
         TOTAL TIME 1.12320E+07 1.87200E+05  3120.0      130.00     0.35592    
1

 SOLVING FOR HEAD 

    ------------------------------------------------
       NWT REQUIRED            3 OUTER ITERATIONS 
       AND A TOTAL OF          3 INNER ITERATIONS.
    ------------------------------------------------

 OUTPUT CONTROL FOR STRESS PERIOD    3   TIME STEP   30
    SAVE HEAD FOR ALL LAYERS
    SAVE DRAWDOWN FOR ALL LAYERS
    SAVE BUDGET
    PRINT HEAD FOR ALL LAYERS
    PRINT BUDGET
1
              HEAD IN LAYER   1 AT END OF TIME STEP  30 IN STRESS PERIOD    3
  ---------------------------------------------------------------------------

            1           2           3           4           5           6           7           8           9          10
           11          12          13          14          15          16          17          18          19          20
 ........................................................................................................................
   1    0.000       0.000       0.000       0.000       0.000       10.59       10.44       10.88       11.56       11.50    
        10.25       7.381       2.232     -0.3643       5.859       21.64       31.99       37.53       0.000       0.000    
   2    0.000       0.000       0.000       0.000       8.396       7.974       7.177       7.868       9.364       9.645    
        8.777       6.599       2.598     -0.4571       8.444       23.39       33.68       39.58       0.000       0.000    
   3    0.000       0.000       0.000       6.364       6.039       4.090       3.239       3.831       5.275       5.828    
        5.478       4.438       2.829     -0.7198       14.22       26.16       37.13       43.84       0.000       0.000    
   4    0.000       0.000       3.643       3.954       2.751     -0.6071     -0.3073     -0.4250     -0.7008     -0.6337    
      -0.6087     -0.4437       1.380     -0.7898       19.15       32.43       42.18       50.81       0.000       0.000    
   5    0.000       0.000      0.5079     -6.4585E-02 -0.9097     -0.2223       4.997       8.337       11.50       12.17    
        10.00     -0.2015     -0.7670      0.5521       26.17       39.73       53.44       64.51       75.43       0.000    
   6    0.000     -0.8199     -0.9913     -0.5932       2.181       10.82       16.13       19.79       22.40       23.95    
        23.69       21.62       23.03       28.21       41.04       53.49       67.84       72.93       77.88       0.000    
   7    0.000       9.831       11.41       13.27       16.40       21.42       25.83       29.22       31.25       34.24    
        35.86       37.11       40.10       45.65       54.93       65.18       74.22       80.28       0.000       0.000    
   8    0.000       16.07       20.38       23.01       26.04       29.83       33.60       36.96       39.81       42.73    
        45.33       48.10       52.01       57.60       65.07       73.24       80.74       88.83       0.000       0.000    
   9    0.000       0.000       28.13       29.81       32.37       35.58       38.98       42.29       45.42       48.54    
        51.68       55.18       59.52       65.04       71.73       79.07       86.51       94.48       102.3       107.2    
  10    0.000       0.000       31.89       33.24       35.55       38.49       41.72       44.99       48.21       51.46    
        54.84       58.62       63.15       68.63       75.02       82.01       89.24       96.47       102.8       106.5    

 HEAD WILL BE SAVED ON UNIT   51 AT END OF TIME STEP   30, STRESS PERIOD    3

 DRAWDOWN WILL BE SAVED ON UNIT   52 AT END OF TIME STEP   30, STRESS PERIOD    3
1
  VOLUMETRIC BUDGET FOR ENTIRE MODEL AT END OF TIME STEP   30, STRESS PERIOD   3
  ------------------------------------------------------------------------------

     CUMULATIVE VOLUMES      L**3       RATES FOR THIS TIME STEP      L**3/T
     ------------------                 ------------------------

           IN:                                      IN:
           ---                                      ---
             STORAGE =     2018669.0000               STORAGE =       49427.2734
       CONSTANT HEAD =           0.0000         CONSTANT HEAD =           0.0000
               WELLS =           0.0000                 WELLS =           0.0000
       RIVER LEAKAGE =           0.0000         RIVER LEAKAGE =           0.0000
            RECHARGE =     3961367.5000              RECHARGE =       20261.7871

            TOTAL IN =     5980036.5000              TOTAL IN =       69689.0625

          OUT:                                     OUT:
          ----                                     ----
             STORAGE =      790712.7500               STORAGE =           0.0000
       CONSTANT HEAD =           0.0000         CONSTANT HEAD =           0.0000
               WELLS =       66737.8125                 WELLS =         509.4487
       RIVER LEAKAGE =     5122504.5000         RIVER LEAKAGE =       69167.1484
            RECHARGE =           0.0000              RECHARGE =           0.0000

           TOTAL OUT =     5979955.0000             TOTAL OUT =       69676.5938

            IN - OUT =          81.5000              IN - OUT =          12.4688

 PERCENT DISCREPANCY =           0.00     PERCENT DISCREPANCY =           0.02






         TIME SUMMARY AT END OF TIME STEP   30 IN STRESS PERIOD    3
                    SECONDS     MINUTES      HOURS       DAYS        YEARS
                    -----------------------------------------------------------
   TIME STEP LENGTH  86400.      1440.0      24.000      1.0000     2.73785E-03
 STRESS PERIOD TIME 2.59200E+06  43200.      720.00      30.000     8.21355E-02
         TOTAL TIME 1.13184E+07 1.88640E+05  3144.0      131.00     0.35866    
1

 SOLVING FOR HEAD 

    ------------------------------------------------
       NWT REQUIRED            3 OUTER ITERATIONS 
       AND A TOTAL OF          3 INNER ITERATIONS.
    ------------------------------------------------

 OUTPUT CONTROL FOR STRESS PERIOD    3   TIME STEP   31
    SAVE HEAD FOR ALL LAYERS
    SAVE DRAWDOWN FOR ALL LAYERS
    SAVE BUDGET
    PRINT HEAD FOR ALL LAYERS
    PRINT BUDGET
1
              HEAD IN LAYER   1 AT END OF TIME STEP  31 IN STRESS PERIOD    3
  ---------------------------------------------------------------------------

            1           2           3           4           5           6           7           8           9          10
           11          12          13          14          15          16          17          18          19          20
 ........................................................................................................................
   1    0.000       0.000       0.000       0.000       0.000       10.59       10.44       10.88       11.56       11.50    
        10.25       7.380       2.230     -0.3688       5.858       21.63       31.99       37.53       0.000       0.000    
   2    0.000       0.000       0.000       0.000       8.395       7.974       7.177       7.867       9.364       9.645    
        8.776       6.598       2.596     -0.4631       8.442       23.39       33.68       39.58       0.000       0.000    
   3    0.000       0.000       0.000       6.363       6.038       4.089       3.237       3.829       5.274       5.827    
        5.477       4.437       2.828     -0.7289       14.22       26.16       37.12       43.84       0.000       0.000    
   4    0.000       0.000       3.642       3.953       2.749     -0.6142     -0.3126     -0.4319     -0.7100     -0.6425    
      -0.6169     -0.4486       1.378     -0.8001       19.15       32.43       42.18       50.80       0.000       0.000    
   5    0.000       0.000      0.5020     -6.6891E-02 -0.9193     -0.2278       4.995       8.336       11.49       12.17    
        10.00     -0.2078     -0.7778      0.5394       26.17       39.73       53.44       64.51       75.43       0.000    
   6    0.000     -0.8293      -1.003     -0.6016       2.173       10.81       16.13       19.79       22.40       23.95    
        23.69       21.61       23.02       28.21       41.04       53.49       67.84       72.93       77.88       0.000    
   7    0.000       9.830       11.41       13.27       16.40       21.42       25.83       29.22       31.25       34.24    
        35.86       37.11       40.10       45.65       54.93       65.18       74.22       80.27       0.000       0.000    
   8    0.000       16.07       20.38       23.01       26.04       29.83       33.60       36.96       39.81       42.73    
        45.33       48.10       52.01       57.60       65.07       73.24       80.74       88.83       0.000       0.000    
   9    0.000       0.000       28.13       29.81       32.37       35.58       38.98       42.29       45.42       48.54    
        51.68       55.18       59.52       65.04       71.73       79.07       86.51       94.48       102.3       107.2    
  10    0.000       0.000       31.89       33.24       35.55       38.49       41.71       44.99       48.21       51.46    
        54.84       58.62       63.15       68.62       75.02       82.01       89.24       96.47       102.8       106.5    

 HEAD WILL BE SAVED ON UNIT   51 AT END OF TIME STEP   31, STRESS PERIOD    3

 DRAWDOWN WILL BE SAVED ON UNIT   52 AT END OF TIME STEP   31, STRESS PERIOD    3
1
  VOLUMETRIC BUDGET FOR ENTIRE MODEL AT END OF TIME STEP   31, STRESS PERIOD   3
  ------------------------------------------------------------------------------

     CUMULATIVE VOLUMES      L**3       RATES FOR THIS TIME STEP      L**3/T
     ------------------                 ------------------------

           IN:                                      IN:
           ---                                      ---
             STORAGE =     2067649.5000               STORAGE =       48980.5000
       CONSTANT HEAD =           0.0000         CONSTANT HEAD =           0.0000
               WELLS =           0.0000                 WELLS =           0.0000
       RIVER LEAKAGE =           0.0000         RIVER LEAKAGE =           0.0000
            RECHARGE =     3981629.2500              RECHARGE =       20261.7871

            TOTAL IN =     6049279.0000              TOTAL IN =       69242.2891

          OUT:                                     OUT:
          ----                                     ----
             STORAGE =      790712.7500               STORAGE =           0.0000
       CONSTANT HEAD =           0.0000         CONSTANT HEAD =           0.0000
               WELLS =       67247.2578                 WELLS =         509.4487
       RIVER LEAKAGE =     5191225.0000         RIVER LEAKAGE =       68720.4922
            RECHARGE =           0.0000              RECHARGE =           0.0000

           TOTAL OUT =     6049185.0000             TOTAL OUT =       69229.9375

            IN - OUT =          94.0000              IN - OUT =          12.3516

 PERCENT DISCREPANCY =           0.00     PERCENT DISCREPANCY =           0.02






         TIME SUMMARY AT END OF TIME STEP   31 IN STRESS PERIOD    3
                    SECONDS     MINUTES      HOURS       DAYS        YEARS
                    -----------------------------------------------------------
   TIME STEP LENGTH  86400.      1440.0      24.000      1.0000     2.73785E-03
 STRESS PERIOD TIME 2.67840E+06  44640.      744.00      31.000     8.48734E-02
         TOTAL TIME 1.14048E+07 1.90080E+05  3168.0      132.00     0.36140    
1

 SOLVING FOR HEAD 

    ------------------------------------------------
       NWT REQUIRED            3 OUTER ITERATIONS 
       AND A TOTAL OF          3 INNER ITERATIONS.
    ------------------------------------------------

 OUTPUT CONTROL FOR STRESS PERIOD    3   TIME STEP   32
    SAVE HEAD FOR ALL LAYERS
    SAVE DRAWDOWN FOR ALL LAYERS
    SAVE BUDGET
    PRINT HEAD FOR ALL LAYERS
    PRINT BUDGET
1
              HEAD IN LAYER   1 AT END OF TIME STEP  32 IN STRESS PERIOD    3
  ---------------------------------------------------------------------------

            1           2           3           4           5           6           7           8           9          10
           11          12          13          14          15          16          17          18          19          20
 ........................................................................................................................
   1    0.000       0.000       0.000       0.000       0.000       10.59       10.44       10.88       11.56       11.50    
        10.25       7.379       2.229     -0.3734       5.856       21.63       31.99       37.53       0.000       0.000    
   2    0.000       0.000       0.000       0.000       8.394       7.973       7.176       7.866       9.363       9.644    
        8.776       6.597       2.595     -0.4692       8.441       23.39       33.68       39.58       0.000       0.000    
   3    0.000       0.000       0.000       6.363       6.037       4.087       3.235       3.827       5.273       5.826    
        5.476       4.436       2.827     -0.7378       14.22       26.16       37.12       43.84       0.000       0.000    
   4    0.000       0.000       3.641       3.952       2.748     -0.6212     -0.3179     -0.4388     -0.7191     -0.6512    
      -0.6249     -0.4534       1.376     -0.8103       19.14       32.43       42.18       50.80       0.000       0.000    
   5    0.000       0.000      0.4962     -6.9196E-02 -0.9289     -0.2332       4.993       8.334       11.49       12.17    
        10.00     -0.2141     -0.7885      0.5272       26.17       39.73       53.44       64.51       75.43       0.000    
   6    0.000     -0.8386      -1.014     -0.6098       2.165       10.81       16.13       19.78       22.40       23.95    
        23.69       21.61       23.02       28.20       41.03       53.49       67.84       72.93       77.88       0.000    
   7    0.000       9.829       11.41       13.27       16.40       21.42       25.83       29.22       31.25       34.24    
        35.86       37.11       40.10       45.65       54.93       65.18       74.22       80.27       0.000       0.000    
   8    0.000       16.07       20.38       23.01       26.03       29.83       33.60       36.95       39.81       42.73    
        45.33       48.10       52.01       57.60       65.07       73.24       80.74       88.83       0.000       0.000    
   9    0.000       0.000       28.13       29.81       32.37       35.58       38.98       42.29       45.42       48.54    
        51.68       55.18       59.52       65.04       71.73       79.07       86.51       94.48       102.3       107.2    
  10    0.000       0.000       31.89       33.24       35.54       38.49       41.71       44.99       48.21       51.46    
        54.84       58.62       63.15       68.62       75.02       82.01       89.24       96.47       102.8       106.5    

 HEAD WILL BE SAVED ON UNIT   51 AT END OF TIME STEP   32, STRESS PERIOD    3

 DRAWDOWN WILL BE SAVED ON UNIT   52 AT END OF TIME STEP   32, STRESS PERIOD    3
1
  VOLUMETRIC BUDGET FOR ENTIRE MODEL AT END OF TIME STEP   32, STRESS PERIOD   3
  ------------------------------------------------------------------------------

     CUMULATIVE VOLUMES      L**3       RATES FOR THIS TIME STEP      L**3/T
     ------------------                 ------------------------

           IN:                                      IN:
           ---                                      ---
             STORAGE =     2116188.7500               STORAGE =       48539.2148
       CONSTANT HEAD =           0.0000         CONSTANT HEAD =           0.0000
               WELLS =           0.0000                 WELLS =           0.0000
       RIVER LEAKAGE =           0.0000         RIVER LEAKAGE =           0.0000
            RECHARGE =     4001891.0000              RECHARGE =       20261.7871

            TOTAL IN =     6118080.0000              TOTAL IN =       68801.0000

          OUT:                                     OUT:
          ----                                     ----
             STORAGE =      790712.7500               STORAGE =           0.0000
       CONSTANT HEAD =           0.0000         CONSTANT HEAD =           0.0000
               WELLS =       67756.7031                 WELLS =         509.4487
       RIVER LEAKAGE =     5259504.5000         RIVER LEAKAGE =       68279.3125
            RECHARGE =           0.0000              RECHARGE =           0.0000

           TOTAL OUT =     6117974.0000             TOTAL OUT =       68788.7578

            IN - OUT =         106.0000              IN - OUT =          12.2422

 PERCENT DISCREPANCY =           0.00     PERCENT DISCREPANCY =           0.02






         TIME SUMMARY AT END OF TIME STEP   32 IN STRESS PERIOD    3
                    SECONDS     MINUTES      HOURS       DAYS        YEARS
                    -----------------------------------------------------------
   TIME STEP LENGTH  86400.      1440.0      24.000      1.0000     2.73785E-03
 STRESS PERIOD TIME 2.76480E+06  46080.      768.00      32.000     8.76112E-02
         TOTAL TIME 1.14912E+07 1.91520E+05  3192.0      133.00     0.36413    
1

 SOLVING FOR HEAD 

    ------------------------------------------------
       NWT REQUIRED            3 OUTER ITERATIONS 
       AND A TOTAL OF          3 INNER ITERATIONS.
    ------------------------------------------------

 OUTPUT CONTROL FOR STRESS PERIOD    3   TIME STEP   33
    SAVE HEAD FOR ALL LAYERS
    SAVE DRAWDOWN FOR ALL LAYERS
    SAVE BUDGET
    PRINT HEAD FOR ALL LAYERS
    PRINT BUDGET
1
              HEAD IN LAYER   1 AT END OF TIME STEP  33 IN STRESS PERIOD    3
  ---------------------------------------------------------------------------

            1           2           3           4           5           6           7           8           9          10
           11          12          13          14          15          16          17          18          19          20
 ........................................................................................................................
   1    0.000       0.000       0.000       0.000       0.000       10.59       10.44       10.88       11.56       11.50    
        10.25       7.379       2.227     -0.3779       5.854       21.63       31.99       37.53       0.000       0.000    
   2    0.000       0.000       0.000       0.000       8.394       7.972       7.175       7.866       9.362       9.643    
        8.775       6.597       2.593     -0.4752       8.439       23.39       33.68       39.58       0.000       0.000    
   3    0.000       0.000       0.000       6.362       6.036       4.086       3.233       3.825       5.272       5.824    
        5.475       4.435       2.825     -0.7467       14.21       26.16       37.12       43.84       0.000       0.000    
   4    0.000       0.000       3.640       3.951       2.746     -0.6282     -0.3231     -0.4457     -0.7280     -0.6597    
      -0.6330     -0.4583       1.374     -0.8203       19.14       32.43       42.17       50.80       0.000       0.000    
   5    0.000       0.000      0.4903     -7.1498E-02 -0.9383     -0.2387       4.992       8.333       11.49       12.17    
        9.998     -0.2203     -0.7990      0.5154       26.16       39.73       53.44       64.50       75.43       0.000    
   6    0.000     -0.8478      -1.025     -0.6180       2.157       10.81       16.13       19.78       22.40       23.95    
        23.69       21.61       23.02       28.20       41.03       53.49       67.84       72.93       77.88       0.000    
   7    0.000       9.827       11.41       13.26       16.40       21.42       25.83       29.22       31.25       34.24    
        35.86       37.11       40.10       45.65       54.93       65.18       74.22       80.27       0.000       0.000    
   8    0.000       16.07       20.38       23.01       26.03       29.83       33.60       36.95       39.81       42.73    
        45.33       48.10       52.01       57.60       65.07       73.24       80.74       88.83       0.000       0.000    
   9    0.000       0.000       28.13       29.80       32.37       35.58       38.98       42.29       45.42       48.54    
        51.68       55.17       59.52       65.04       71.73       79.07       86.51       94.48       102.3       107.2    
  10    0.000       0.000       31.88       33.24       35.54       38.48       41.71       44.99       48.21       51.46    
        54.84       58.62       63.15       68.62       75.02       82.01       89.24       96.47       102.8       106.5    

 HEAD WILL BE SAVED ON UNIT   51 AT END OF TIME STEP   33, STRESS PERIOD    3

 DRAWDOWN WILL BE SAVED ON UNIT   52 AT END OF TIME STEP   33, STRESS PERIOD    3
1
  VOLUMETRIC BUDGET FOR ENTIRE MODEL AT END OF TIME STEP   33, STRESS PERIOD   3
  ------------------------------------------------------------------------------

     CUMULATIVE VOLUMES      L**3       RATES FOR THIS TIME STEP      L**3/T
     ------------------                 ------------------------

           IN:                                      IN:
           ---                                      ---
             STORAGE =     2164292.0000               STORAGE =       48103.3320
       CONSTANT HEAD =           0.0000         CONSTANT HEAD =           0.0000
               WELLS =           0.0000                 WELLS =           0.0000
       RIVER LEAKAGE =           0.0000         RIVER LEAKAGE =           0.0000
            RECHARGE =     4022152.7500              RECHARGE =       20261.7871

            TOTAL IN =     6186445.0000              TOTAL IN =       68365.1172

          OUT:                                     OUT:
          ----                                     ----
             STORAGE =      790712.7500               STORAGE =           0.0000
       CONSTANT HEAD =           0.0000         CONSTANT HEAD =           0.0000
               WELLS =       68266.1484                 WELLS =         509.4487
       RIVER LEAKAGE =     5327348.0000         RIVER LEAKAGE =       67843.5469
            RECHARGE =           0.0000              RECHARGE =           0.0000

           TOTAL OUT =     6186327.0000             TOTAL OUT =       68352.9922

            IN - OUT =         118.0000              IN - OUT =          12.1250

 PERCENT DISCREPANCY =           0.00     PERCENT DISCREPANCY =           0.02






         TIME SUMMARY AT END OF TIME STEP   33 IN STRESS PERIOD    3
                    SECONDS     MINUTES      HOURS       DAYS        YEARS
                    -----------------------------------------------------------
   TIME STEP LENGTH  86400.      1440.0      24.000      1.0000     2.73785E-03
 STRESS PERIOD TIME 2.85120E+06  47520.      792.00      33.000     9.03491E-02
         TOTAL TIME 1.15776E+07 1.92960E+05  3216.0      134.00     0.36687    
1

 SOLVING FOR HEAD 

    ------------------------------------------------
       NWT REQUIRED            3 OUTER ITERATIONS 
       AND A TOTAL OF          3 INNER ITERATIONS.
    ------------------------------------------------

 OUTPUT CONTROL FOR STRESS PERIOD    3   TIME STEP   34
    SAVE HEAD FOR ALL LAYERS
    SAVE DRAWDOWN FOR ALL LAYERS
    SAVE BUDGET
    PRINT HEAD FOR ALL LAYERS
    PRINT BUDGET
1
              HEAD IN LAYER   1 AT END OF TIME STEP  34 IN STRESS PERIOD    3
  ---------------------------------------------------------------------------

            1           2           3           4           5           6           7           8           9          10
           11          12          13          14          15          16          17          18          19          20
 ........................................................................................................................
   1    0.000       0.000       0.000       0.000       0.000       10.59       10.44       10.88       11.56       11.50    
        10.25       7.378       2.225     -0.3824       5.852       21.63       31.99       37.52       0.000       0.000    
   2    0.000       0.000       0.000       0.000       8.393       7.972       7.174       7.865       9.362       9.643    
        8.774       6.596       2.592     -0.4811       8.438       23.39       33.68       39.58       0.000       0.000    
   3    0.000       0.000       0.000       6.361       6.036       4.084       3.231       3.823       5.270       5.823    
        5.474       4.434       2.824     -0.7555       14.21       26.16       37.12       43.84       0.000       0.000    
   4    0.000       0.000       3.639       3.950       2.744     -0.6351     -0.3284     -0.4525     -0.7369     -0.6682    
      -0.6409     -0.4631       1.371     -0.8302       19.14       32.43       42.17       50.80       0.000       0.000    
   5    0.000       0.000      0.4846     -7.3800E-02 -0.9476     -0.2441       4.990       8.331       11.49       12.16    
        9.997     -0.2264     -0.8093      0.5040       26.16       39.72       53.44       64.50       75.43       0.000    
   6    0.000     -0.8568      -1.036     -0.6261       2.149       10.81       16.13       19.78       22.40       23.95    
        23.69       21.61       23.02       28.20       41.03       53.49       67.84       72.93       77.88       0.000    
   7    0.000       9.826       11.40       13.26       16.39       21.42       25.83       29.22       31.25       34.24    
        35.86       37.11       40.10       45.65       54.93       65.18       74.22       80.27       0.000       0.000    
   8    0.000       16.07       20.38       23.01       26.03       29.83       33.60       36.95       39.81       42.72    
        45.33       48.10       52.00       57.60       65.07       73.24       80.74       88.83       0.000       0.000    
   9    0.000       0.000       28.13       29.80       32.37       35.58       38.98       42.29       45.42       48.54    
        51.68       55.17       59.52       65.04       71.73       79.06       86.51       94.48       102.3       107.2    
  10    0.000       0.000       31.88       33.23       35.54       38.48       41.71       44.98       48.21       51.46    
        54.84       58.62       63.15       68.62       75.02       82.01       89.24       96.47       102.8       106.5    

 HEAD WILL BE SAVED ON UNIT   51 AT END OF TIME STEP   34, STRESS PERIOD    3

 DRAWDOWN WILL BE SAVED ON UNIT   52 AT END OF TIME STEP   34, STRESS PERIOD    3
1
  VOLUMETRIC BUDGET FOR ENTIRE MODEL AT END OF TIME STEP   34, STRESS PERIOD   3
  ------------------------------------------------------------------------------

     CUMULATIVE VOLUMES      L**3       RATES FOR THIS TIME STEP      L**3/T
     ------------------                 ------------------------

           IN:                                      IN:
           ---                                      ---
             STORAGE =     2211964.7500               STORAGE =       47672.7734
       CONSTANT HEAD =           0.0000         CONSTANT HEAD =           0.0000
               WELLS =           0.0000                 WELLS =           0.0000
       RIVER LEAKAGE =           0.0000         RIVER LEAKAGE =           0.0000
            RECHARGE =     4042414.5000              RECHARGE =       20261.7871

            TOTAL IN =     6254379.0000              TOTAL IN =       67934.5625

          OUT:                                     OUT:
          ----                                     ----
             STORAGE =      790712.7500               STORAGE =           0.0000
       CONSTANT HEAD =           0.0000         CONSTANT HEAD =           0.0000
               WELLS =       68775.5938                 WELLS =         509.4487
       RIVER LEAKAGE =     5394761.0000         RIVER LEAKAGE =       67413.0938
            RECHARGE =           0.0000              RECHARGE =           0.0000

           TOTAL OUT =     6254249.5000             TOTAL OUT =       67922.5391

            IN - OUT =         129.5000              IN - OUT =          12.0234

 PERCENT DISCREPANCY =           0.00     PERCENT DISCREPANCY =           0.02






         TIME SUMMARY AT END OF TIME STEP   34 IN STRESS PERIOD    3
                    SECONDS     MINUTES      HOURS       DAYS        YEARS
                    -----------------------------------------------------------
   TIME STEP LENGTH  86400.      1440.0      24.000      1.0000     2.73785E-03
 STRESS PERIOD TIME 2.93760E+06  48960.      816.00      34.000     9.30869E-02
         TOTAL TIME 1.16640E+07 1.94400E+05  3240.0      135.00     0.36961    
1

 SOLVING FOR HEAD 

    ------------------------------------------------
       NWT REQUIRED            3 OUTER ITERATIONS 
       AND A TOTAL OF          3 INNER ITERATIONS.
    ------------------------------------------------

 OUTPUT CONTROL FOR STRESS PERIOD    3   TIME STEP   35
    SAVE HEAD FOR ALL LAYERS
    SAVE DRAWDOWN FOR ALL LAYERS
    SAVE BUDGET
    PRINT HEAD FOR ALL LAYERS
    PRINT BUDGET
1
              HEAD IN LAYER   1 AT END OF TIME STEP  35 IN STRESS PERIOD    3
  ---------------------------------------------------------------------------

            1           2           3           4           5           6           7           8           9          10
           11          12          13          14          15          16          17          18          19          20
 ........................................................................................................................
   1    0.000       0.000       0.000       0.000       0.000       10.59       10.44       10.88       11.56       11.50    
        10.25       7.377       2.223     -0.3869       5.851       21.63       31.98       37.52       0.000       0.000    
   2    0.000       0.000       0.000       0.000       8.392       7.971       7.174       7.864       9.361       9.642    
        8.774       6.595       2.590     -0.4871       8.436       23.39       33.68       39.58       0.000       0.000    
   3    0.000       0.000       0.000       6.361       6.035       4.082       3.229       3.821       5.269       5.822    
        5.472       4.433       2.823     -0.7641       14.21       26.16       37.12       43.84       0.000       0.000    
   4    0.000       0.000       3.638       3.949       2.742     -0.6419     -0.3336     -0.4592     -0.7457     -0.6766    
      -0.6487     -0.4678       1.369     -0.8399       19.14       32.43       42.17       50.80       0.000       0.000    
   5    0.000       0.000      0.4788     -7.6099E-02 -0.9568     -0.2494       4.988       8.330       11.49       12.16    
        9.995     -0.2325     -0.8194      0.4930       26.16       39.72       53.43       64.50       75.43       0.000    
   6    0.000     -0.8658      -1.046     -0.6341       2.141       10.81       16.13       19.78       22.40       23.94    
        23.69       21.61       23.02       28.20       41.03       53.48       67.84       72.93       77.88       0.000    
   7    0.000       9.825       11.40       13.26       16.39       21.42       25.82       29.22       31.25       34.24    
        35.86       37.11       40.10       45.65       54.93       65.18       74.22       80.27       0.000       0.000    
   8    0.000       16.07       20.38       23.01       26.03       29.83       33.60       36.95       39.81       42.72    
        45.32       48.10       52.00       57.60       65.07       73.24       80.73       88.82       0.000       0.000    
   9    0.000       0.000       28.13       29.80       32.37       35.58       38.98       42.28       45.42       48.54    
        51.68       55.17       59.52       65.04       71.73       79.06       86.51       94.48       102.3       107.2    
  10    0.000       0.000       31.88       33.23       35.54       38.48       41.71       44.98       48.21       51.45    
        54.84       58.62       63.14       68.62       75.02       82.01       89.24       96.47       102.8       106.5    

 HEAD WILL BE SAVED ON UNIT   51 AT END OF TIME STEP   35, STRESS PERIOD    3

 DRAWDOWN WILL BE SAVED ON UNIT   52 AT END OF TIME STEP   35, STRESS PERIOD    3
1
  VOLUMETRIC BUDGET FOR ENTIRE MODEL AT END OF TIME STEP   35, STRESS PERIOD   3
  ------------------------------------------------------------------------------

     CUMULATIVE VOLUMES      L**3       RATES FOR THIS TIME STEP      L**3/T
     ------------------                 ------------------------

           IN:                                      IN:
           ---                                      ---
             STORAGE =     2259212.2500               STORAGE =       47247.4570
       CONSTANT HEAD =           0.0000         CONSTANT HEAD =           0.0000
               WELLS =           0.0000                 WELLS =           0.0000
       RIVER LEAKAGE =           0.0000         RIVER LEAKAGE =           0.0000
            RECHARGE =     4062676.2500              RECHARGE =       20261.7871

            TOTAL IN =     6321888.5000              TOTAL IN =       67509.2422

          OUT:                                     OUT:
          ----                                     ----
             STORAGE =      790712.7500               STORAGE =           0.0000
       CONSTANT HEAD =           0.0000         CONSTANT HEAD =           0.0000
               WELLS =       69285.0391                 WELLS =         509.4487
       RIVER LEAKAGE =     5461749.0000         RIVER LEAKAGE =       66987.8828
            RECHARGE =           0.0000              RECHARGE =           0.0000

           TOTAL OUT =     6321747.0000             TOTAL OUT =       67497.3281

            IN - OUT =         141.5000              IN - OUT =          11.9141

 PERCENT DISCREPANCY =           0.00     PERCENT DISCREPANCY =           0.02






         TIME SUMMARY AT END OF TIME STEP   35 IN STRESS PERIOD    3
                    SECONDS     MINUTES      HOURS       DAYS        YEARS
                    -----------------------------------------------------------
   TIME STEP LENGTH  86400.      1440.0      24.000      1.0000     2.73785E-03
 STRESS PERIOD TIME 3.02400E+06  50400.      840.00      35.000     9.58248E-02
         TOTAL TIME 1.17504E+07 1.95840E+05  3264.0      136.00     0.37235    
1

 SOLVING FOR HEAD 

    ------------------------------------------------
       NWT REQUIRED            3 OUTER ITERATIONS 
       AND A TOTAL OF          3 INNER ITERATIONS.
    ------------------------------------------------

 OUTPUT CONTROL FOR STRESS PERIOD    3   TIME STEP   36
    SAVE HEAD FOR ALL LAYERS
    SAVE DRAWDOWN FOR ALL LAYERS
    SAVE BUDGET
    PRINT HEAD FOR ALL LAYERS
    PRINT BUDGET
1
              HEAD IN LAYER   1 AT END OF TIME STEP  36 IN STRESS PERIOD    3
  ---------------------------------------------------------------------------

            1           2           3           4           5           6           7           8           9          10
           11          12          13          14          15          16          17          18          19          20
 ........................................................................................................................
   1    0.000       0.000       0.000       0.000       0.000       10.59       10.44       10.88       11.56       11.50    
        10.25       7.377       2.222     -0.3913       5.849       21.63       31.98       37.52       0.000       0.000    
   2    0.000       0.000       0.000       0.000       8.392       7.970       7.173       7.864       9.360       9.641    
        8.773       6.595       2.588     -0.4929       8.434       23.39       33.68       39.58       0.000       0.000    
   3    0.000       0.000       0.000       6.360       6.034       4.081       3.227       3.820       5.268       5.821    
        5.471       4.432       2.822     -0.7727       14.21       26.16       37.12       43.84       0.000       0.000    
   4    0.000       0.000       3.637       3.948       2.740     -0.6487     -0.3387     -0.4659     -0.7544     -0.6849    
      -0.6565     -0.4726       1.367     -0.8496       19.14       32.43       42.17       50.80       0.000       0.000    
   5    0.000       0.000      0.4731     -7.8397E-02 -0.9658     -0.2548       4.986       8.328       11.49       12.16    
        9.993     -0.2386     -0.8294      0.4824       26.16       39.72       53.43       64.50       75.43       0.000    
   6    0.000     -0.8747      -1.057     -0.6420       2.133       10.81       16.13       19.78       22.40       23.94    
        23.69       21.61       23.02       28.20       41.03       53.48       67.84       72.93       77.88       0.000    
   7    0.000       9.823       11.40       13.26       16.39       21.42       25.82       29.22       31.25       34.24    
        35.86       37.11       40.10       45.65       54.93       65.18       74.22       80.27       0.000       0.000    
   8    0.000       16.07       20.38       23.01       26.03       29.83       33.60       36.95       39.81       42.72    
        45.32       48.10       52.00       57.60       65.07       73.24       80.73       88.82       0.000       0.000    
   9    0.000       0.000       28.13       29.80       32.37       35.57       38.98       42.28       45.42       48.54    
        51.68       55.17       59.52       65.04       71.73       79.06       86.51       94.48       102.3       107.2    
  10    0.000       0.000       31.88       33.23       35.54       38.48       41.71       44.98       48.21       51.45    
        54.84       58.62       63.14       68.62       75.02       82.01       89.23       96.47       102.8       106.5    

 HEAD WILL BE SAVED ON UNIT   51 AT END OF TIME STEP   36, STRESS PERIOD    3

 DRAWDOWN WILL BE SAVED ON UNIT   52 AT END OF TIME STEP   36, STRESS PERIOD    3
1
  VOLUMETRIC BUDGET FOR ENTIRE MODEL AT END OF TIME STEP   36, STRESS PERIOD   3
  ------------------------------------------------------------------------------

     CUMULATIVE VOLUMES      L**3       RATES FOR THIS TIME STEP      L**3/T
     ------------------                 ------------------------

           IN:                                      IN:
           ---                                      ---
             STORAGE =     2306039.5000               STORAGE =       46827.3086
       CONSTANT HEAD =           0.0000         CONSTANT HEAD =           0.0000
               WELLS =           0.0000                 WELLS =           0.0000
       RIVER LEAKAGE =           0.0000         RIVER LEAKAGE =           0.0000
            RECHARGE =     4082938.0000              RECHARGE =       20261.7871

            TOTAL IN =     6388977.5000              TOTAL IN =       67089.0938

          OUT:                                     OUT:
          ----                                     ----
             STORAGE =      790712.7500               STORAGE =           0.0000
       CONSTANT HEAD =           0.0000         CONSTANT HEAD =           0.0000
               WELLS =       69794.4844                 WELLS =         509.4487
       RIVER LEAKAGE =     5528317.0000         RIVER LEAKAGE =       66567.8438
            RECHARGE =           0.0000              RECHARGE =           0.0000

           TOTAL OUT =     6388824.0000             TOTAL OUT =       67077.2891

            IN - OUT =         153.5000              IN - OUT =          11.8047

 PERCENT DISCREPANCY =           0.00     PERCENT DISCREPANCY =           0.02






         TIME SUMMARY AT END OF TIME STEP   36 IN STRESS PERIOD    3
                    SECONDS     MINUTES      HOURS       DAYS        YEARS
                    -----------------------------------------------------------
   TIME STEP LENGTH  86400.      1440.0      24.000      1.0000     2.73785E-03
 STRESS PERIOD TIME 3.11040E+06  51840.      864.00      36.000     9.85626E-02
         TOTAL TIME 1.18368E+07 1.97280E+05  3288.0      137.00     0.37509    
1

 SOLVING FOR HEAD 

    ------------------------------------------------
       NWT REQUIRED            3 OUTER ITERATIONS 
       AND A TOTAL OF          3 INNER ITERATIONS.
    ------------------------------------------------

 OUTPUT CONTROL FOR STRESS PERIOD    3   TIME STEP   37
    SAVE HEAD FOR ALL LAYERS
    SAVE DRAWDOWN FOR ALL LAYERS
    SAVE BUDGET
    PRINT HEAD FOR ALL LAYERS
    PRINT BUDGET
1
              HEAD IN LAYER   1 AT END OF TIME STEP  37 IN STRESS PERIOD    3
  ---------------------------------------------------------------------------

            1           2           3           4           5           6           7           8           9          10
           11          12          13          14          15          16          17          18          19          20
 ........................................................................................................................
   1    0.000       0.000       0.000       0.000       0.000       10.59       10.44       10.88       11.56       11.49    
        10.25       7.376       2.220     -0.3958       5.847       21.63       31.98       37.52       0.000       0.000    
   2    0.000       0.000       0.000       0.000       8.391       7.970       7.172       7.863       9.360       9.641    
        8.772       6.594       2.587     -0.4988       8.433       23.39       33.68       39.58       0.000       0.000    
   3    0.000       0.000       0.000       6.359       6.033       4.079       3.225       3.818       5.266       5.819    
        5.470       4.431       2.820     -0.7811       14.21       26.16       37.12       43.84       0.000       0.000    
   4    0.000       0.000       3.636       3.947       2.738     -0.6554     -0.3438     -0.4725     -0.7629     -0.6931    
      -0.6642     -0.4773       1.364     -0.8591       19.14       32.43       42.17       50.80       0.000       0.000    
   5    0.000       0.000      0.4674     -8.0694E-02 -0.9748     -0.2601       4.984       8.327       11.49       12.16    
        9.992     -0.2446     -0.8393      0.4722       26.16       39.72       53.43       64.50       75.43       0.000    
   6    0.000     -0.8834      -1.067     -0.6499       2.126       10.81       16.13       19.78       22.39       23.94    
        23.69       21.61       23.02       28.20       41.03       53.48       67.84       72.93       77.88       0.000    
   7    0.000       9.822       11.40       13.26       16.39       21.42       25.82       29.22       31.25       34.24    
        35.85       37.10       40.10       45.65       54.93       65.18       74.22       80.27       0.000       0.000    
   8    0.000       16.07       20.38       23.01       26.03       29.83       33.60       36.95       39.80       42.72    
        45.32       48.10       52.00       57.60       65.07       73.24       80.73       88.82       0.000       0.000    
   9    0.000       0.000       28.13       29.80       32.37       35.57       38.98       42.28       45.42       48.54    
        51.68       55.17       59.52       65.04       71.73       79.06       86.51       94.48       102.3       107.2    
  10    0.000       0.000       31.88       33.23       35.54       38.48       41.71       44.98       48.21       51.45    
        54.84       58.62       63.14       68.62       75.02       82.01       89.23       96.47       102.8       106.5    

 HEAD WILL BE SAVED ON UNIT   51 AT END OF TIME STEP   37, STRESS PERIOD    3

 DRAWDOWN WILL BE SAVED ON UNIT   52 AT END OF TIME STEP   37, STRESS PERIOD    3
1
  VOLUMETRIC BUDGET FOR ENTIRE MODEL AT END OF TIME STEP   37, STRESS PERIOD   3
  ------------------------------------------------------------------------------

     CUMULATIVE VOLUMES      L**3       RATES FOR THIS TIME STEP      L**3/T
     ------------------                 ------------------------

           IN:                                      IN:
           ---                                      ---
             STORAGE =     2352451.7500               STORAGE =       46412.2461
       CONSTANT HEAD =           0.0000         CONSTANT HEAD =           0.0000
               WELLS =           0.0000                 WELLS =           0.0000
       RIVER LEAKAGE =           0.0000         RIVER LEAKAGE =           0.0000
            RECHARGE =     4103199.7500              RECHARGE =       20261.7871

            TOTAL IN =     6455651.5000              TOTAL IN =       66674.0312

          OUT:                                     OUT:
          ----                                     ----
             STORAGE =      790712.7500               STORAGE =           0.0000
       CONSTANT HEAD =           0.0000         CONSTANT HEAD =           0.0000
               WELLS =       70303.9297                 WELLS =         509.4487
       RIVER LEAKAGE =     5594470.0000         RIVER LEAKAGE =       66152.8828
            RECHARGE =           0.0000              RECHARGE =           0.0000

           TOTAL OUT =     6455486.5000             TOTAL OUT =       66662.3281

            IN - OUT =         165.0000              IN - OUT =          11.7031

 PERCENT DISCREPANCY =           0.00     PERCENT DISCREPANCY =           0.02






         TIME SUMMARY AT END OF TIME STEP   37 IN STRESS PERIOD    3
                    SECONDS     MINUTES      HOURS       DAYS        YEARS
                    -----------------------------------------------------------
   TIME STEP LENGTH  86400.      1440.0      24.000      1.0000     2.73785E-03
 STRESS PERIOD TIME 3.19680E+06  53280.      888.00      37.000     0.10130    
         TOTAL TIME 1.19232E+07 1.98720E+05  3312.0      138.00     0.37782    
1

 SOLVING FOR HEAD 

    ------------------------------------------------
       NWT REQUIRED            3 OUTER ITERATIONS 
       AND A TOTAL OF          3 INNER ITERATIONS.
    ------------------------------------------------

 OUTPUT CONTROL FOR STRESS PERIOD    3   TIME STEP   38
    SAVE HEAD FOR ALL LAYERS
    SAVE DRAWDOWN FOR ALL LAYERS
    SAVE BUDGET
    PRINT HEAD FOR ALL LAYERS
    PRINT BUDGET
1
              HEAD IN LAYER   1 AT END OF TIME STEP  38 IN STRESS PERIOD    3
  ---------------------------------------------------------------------------

            1           2           3           4           5           6           7           8           9          10
           11          12          13          14          15          16          17          18          19          20
 ........................................................................................................................
   1    0.000       0.000       0.000       0.000       0.000       10.59       10.44       10.88       11.56       11.49    
        10.25       7.375       2.218     -0.4002       5.846       21.63       31.98       37.52       0.000       0.000    
   2    0.000       0.000       0.000       0.000       8.391       7.969       7.171       7.862       9.359       9.640    
        8.772       6.593       2.585     -0.5046       8.431       23.38       33.68       39.58       0.000       0.000    
   3    0.000       0.000       0.000       6.359       6.033       4.078       3.223       3.816       5.265       5.818    
        5.469       4.430       2.819     -0.7895       14.21       26.16       37.12       43.84       0.000       0.000    
   4    0.000       0.000       3.635       3.947       2.736     -0.6621     -0.3489     -0.4790     -0.7714     -0.7012    
      -0.6718     -0.4821       1.362     -0.8684       19.14       32.43       42.17       50.80       0.000       0.000    
   5    0.000       0.000      0.4617     -8.2988E-02 -0.9836     -0.2654       4.982       8.325       11.49       12.16    
        9.990     -0.2505     -0.8490      0.4623       26.16       39.72       53.43       64.50       75.43       0.000    
   6    0.000     -0.8921      -1.077     -0.6577       2.118       10.80       16.13       19.78       22.39       23.94    
        23.69       21.61       23.01       28.19       41.03       53.48       67.84       72.92       77.88       0.000    
   7    0.000       9.820       11.40       13.26       16.39       21.42       25.82       29.22       31.25       34.24    
        35.85       37.10       40.10       45.65       54.93       65.18       74.22       80.27       0.000       0.000    
   8    0.000       16.07       20.37       23.01       26.03       29.83       33.60       36.95       39.80       42.72    
        45.32       48.10       52.00       57.60       65.07       73.24       80.73       88.82       0.000       0.000    
   9    0.000       0.000       28.13       29.80       32.37       35.57       38.98       42.28       45.42       48.53    
        51.68       55.17       59.52       65.04       71.73       79.06       86.51       94.48       102.3       107.2    
  10    0.000       0.000       31.88       33.23       35.54       38.48       41.71       44.98       48.21       51.45    
        54.84       58.62       63.14       68.62       75.02       82.01       89.23       96.47       102.8       106.5    

 HEAD WILL BE SAVED ON UNIT   51 AT END OF TIME STEP   38, STRESS PERIOD    3

 DRAWDOWN WILL BE SAVED ON UNIT   52 AT END OF TIME STEP   38, STRESS PERIOD    3
1
  VOLUMETRIC BUDGET FOR ENTIRE MODEL AT END OF TIME STEP   38, STRESS PERIOD   3
  ------------------------------------------------------------------------------

     CUMULATIVE VOLUMES      L**3       RATES FOR THIS TIME STEP      L**3/T
     ------------------                 ------------------------

           IN:                                      IN:
           ---                                      ---
             STORAGE =     2398454.0000               STORAGE =       46002.1953
       CONSTANT HEAD =           0.0000         CONSTANT HEAD =           0.0000
               WELLS =           0.0000                 WELLS =           0.0000
       RIVER LEAKAGE =           0.0000         RIVER LEAKAGE =           0.0000
            RECHARGE =     4123461.5000              RECHARGE =       20261.7871

            TOTAL IN =     6521915.5000              TOTAL IN =       66263.9844

          OUT:                                     OUT:
          ----                                     ----
             STORAGE =      790712.7500               STORAGE =           0.0000
       CONSTANT HEAD =           0.0000         CONSTANT HEAD =           0.0000
               WELLS =       70813.3750                 WELLS =         509.4487
       RIVER LEAKAGE =     5660213.0000         RIVER LEAKAGE =       65742.9375
            RECHARGE =           0.0000              RECHARGE =           0.0000

           TOTAL OUT =     6521739.0000             TOTAL OUT =       66252.3828

            IN - OUT =         176.5000              IN - OUT =          11.6016

 PERCENT DISCREPANCY =           0.00     PERCENT DISCREPANCY =           0.02






         TIME SUMMARY AT END OF TIME STEP   38 IN STRESS PERIOD    3
                    SECONDS     MINUTES      HOURS       DAYS        YEARS
                    -----------------------------------------------------------
   TIME STEP LENGTH  86400.      1440.0      24.000      1.0000     2.73785E-03
 STRESS PERIOD TIME 3.28320E+06  54720.      912.00      38.000     0.10404    
         TOTAL TIME 1.20096E+07 2.00160E+05  3336.0      139.00     0.38056    
1

 SOLVING FOR HEAD 

    ------------------------------------------------
       NWT REQUIRED            3 OUTER ITERATIONS 
       AND A TOTAL OF          3 INNER ITERATIONS.
    ------------------------------------------------

 OUTPUT CONTROL FOR STRESS PERIOD    3   TIME STEP   39
    SAVE HEAD FOR ALL LAYERS
    SAVE DRAWDOWN FOR ALL LAYERS
    SAVE BUDGET
    PRINT HEAD FOR ALL LAYERS
    PRINT BUDGET
1
              HEAD IN LAYER   1 AT END OF TIME STEP  39 IN STRESS PERIOD    3
  ---------------------------------------------------------------------------

            1           2           3           4           5           6           7           8           9          10
           11          12          13          14          15          16          17          18          19          20
 ........................................................................................................................
   1    0.000       0.000       0.000       0.000       0.000       10.59       10.44       10.88       11.56       11.49    
        10.25       7.375       2.216     -0.4046       5.844       21.63       31.98       37.52       0.000       0.000    
   2    0.000       0.000       0.000       0.000       8.390       7.968       7.171       7.861       9.359       9.640    
        8.771       6.593       2.583     -0.5103       8.429       23.38       33.68       39.58       0.000       0.000    
   3    0.000       0.000       0.000       6.358       6.032       4.076       3.221       3.814       5.263       5.817    
        5.467       4.429       2.818     -0.7978       14.21       26.16       37.12       43.84       0.000       0.000    
   4    0.000       0.000       3.634       3.946       2.734     -0.6687     -0.3540     -0.4856     -0.7798     -0.7092    
      -0.6794     -0.4867       1.360     -0.8776       19.14       32.43       42.17       50.80       0.000       0.000    
   5    0.000       0.000      0.4561     -8.5280E-02 -0.9923     -0.2706       4.980       8.324       11.48       12.16    
        9.988     -0.2564     -0.8585      0.4528       26.15       39.72       53.43       64.50       75.42       0.000    
   6    0.000     -0.9007      -1.087     -0.6654       2.111       10.80       16.13       19.78       22.39       23.94    
        23.69       21.61       23.01       28.19       41.03       53.48       67.84       72.92       77.88       0.000    
   7    0.000       9.819       11.40       13.26       16.39       21.42       25.82       29.22       31.25       34.24    
        35.85       37.10       40.10       45.65       54.93       65.18       74.22       80.27       0.000       0.000    
   8    0.000       16.07       20.37       23.01       26.03       29.83       33.60       36.95       39.80       42.72    
        45.32       48.10       52.00       57.60       65.07       73.24       80.73       88.82       0.000       0.000    
   9    0.000       0.000       28.13       29.80       32.37       35.57       38.98       42.28       45.42       48.53    
        51.68       55.17       59.52       65.04       71.73       79.06       86.51       94.48       102.3       107.2    
  10    0.000       0.000       31.88       33.23       35.54       38.48       41.71       44.98       48.21       51.45    
        54.84       58.62       63.14       68.62       75.02       82.01       89.23       96.47       102.8       106.5    

 HEAD WILL BE SAVED ON UNIT   51 AT END OF TIME STEP   39, STRESS PERIOD    3

 DRAWDOWN WILL BE SAVED ON UNIT   52 AT END OF TIME STEP   39, STRESS PERIOD    3
1
  VOLUMETRIC BUDGET FOR ENTIRE MODEL AT END OF TIME STEP   39, STRESS PERIOD   3
  ------------------------------------------------------------------------------

     CUMULATIVE VOLUMES      L**3       RATES FOR THIS TIME STEP      L**3/T
     ------------------                 ------------------------

           IN:                                      IN:
           ---                                      ---
             STORAGE =     2444051.0000               STORAGE =       45597.0859
       CONSTANT HEAD =           0.0000         CONSTANT HEAD =           0.0000
               WELLS =           0.0000                 WELLS =           0.0000
       RIVER LEAKAGE =           0.0000         RIVER LEAKAGE =           0.0000
            RECHARGE =     4143723.2500              RECHARGE =       20261.7871

            TOTAL IN =     6587774.0000              TOTAL IN =       65858.8750

          OUT:                                     OUT:
          ----                                     ----
             STORAGE =      790712.7500               STORAGE =           0.0000
       CONSTANT HEAD =           0.0000         CONSTANT HEAD =           0.0000
               WELLS =       71322.8203                 WELLS =         509.4487
       RIVER LEAKAGE =     5725551.0000         RIVER LEAKAGE =       65337.9336
            RECHARGE =           0.0000              RECHARGE =           0.0000

           TOTAL OUT =     6587586.5000             TOTAL OUT =       65847.3828

            IN - OUT =         187.5000              IN - OUT =          11.4922

 PERCENT DISCREPANCY =           0.00     PERCENT DISCREPANCY =           0.02






         TIME SUMMARY AT END OF TIME STEP   39 IN STRESS PERIOD    3
                    SECONDS     MINUTES      HOURS       DAYS        YEARS
                    -----------------------------------------------------------
   TIME STEP LENGTH  86400.      1440.0      24.000      1.0000     2.73785E-03
 STRESS PERIOD TIME 3.36960E+06  56160.      936.00      39.000     0.10678    
         TOTAL TIME 1.20960E+07 2.01600E+05  3360.0      140.00     0.38330    
1

 SOLVING FOR HEAD 

    ------------------------------------------------
       NWT REQUIRED            3 OUTER ITERATIONS 
       AND A TOTAL OF          3 INNER ITERATIONS.
    ------------------------------------------------

 OUTPUT CONTROL FOR STRESS PERIOD    3   TIME STEP   40
    SAVE HEAD FOR ALL LAYERS
    SAVE DRAWDOWN FOR ALL LAYERS
    SAVE BUDGET
    PRINT HEAD FOR ALL LAYERS
    PRINT BUDGET
1
              HEAD IN LAYER   1 AT END OF TIME STEP  40 IN STRESS PERIOD    3
  ---------------------------------------------------------------------------

            1           2           3           4           5           6           7           8           9          10
           11          12          13          14          15          16          17          18          19          20
 ........................................................................................................................
   1    0.000       0.000       0.000       0.000       0.000       10.58       10.44       10.88       11.56       11.49    
        10.25       7.374       2.215     -0.4090       5.842       21.63       31.98       37.52       0.000       0.000    
   2    0.000       0.000       0.000       0.000       8.389       7.967       7.170       7.861       9.358       9.639    
        8.770       6.592       2.582     -0.5160       8.428       23.38       33.68       39.58       0.000       0.000    
   3    0.000       0.000       0.000       6.358       6.031       4.074       3.219       3.812       5.262       5.816    
        5.466       4.428       2.816     -0.8059       14.21       26.16       37.12       43.84       0.000       0.000    
   4    0.000       0.000       3.632       3.945       2.732     -0.6753     -0.3591     -0.4920     -0.7880     -0.7172    
      -0.6869     -0.4914       1.357     -0.8867       19.13       32.43       42.17       50.80       0.000       0.000    
   5    0.000       0.000      0.4505     -8.7571E-02  -1.001     -0.2758       4.978       8.322       11.48       12.16    
        9.987     -0.2623     -0.8679      0.4436       26.15       39.72       53.43       64.50       75.42       0.000    
   6    0.000     -0.9091      -1.097     -0.6730       2.103       10.80       16.13       19.78       22.39       23.94    
        23.68       21.60       23.01       28.19       41.03       53.48       67.84       72.92       77.88       0.000    
   7    0.000       9.817       11.39       13.26       16.39       21.42       25.82       29.22       31.25       34.24    
        35.85       37.10       40.10       45.65       54.93       65.17       74.22       80.27       0.000       0.000    
   8    0.000       16.07       20.37       23.01       26.03       29.83       33.60       36.95       39.80       42.72    
        45.32       48.10       52.00       57.60       65.07       73.24       80.73       88.82       0.000       0.000    
   9    0.000       0.000       28.13       29.80       32.37       35.57       38.97       42.28       45.42       48.53    
        51.68       55.17       59.52       65.04       71.73       79.06       86.51       94.48       102.3       107.2    
  10    0.000       0.000       31.88       33.23       35.54       38.48       41.71       44.98       48.21       51.45    
        54.83       58.62       63.14       68.62       75.02       82.01       89.23       96.47       102.8       106.5    

 HEAD WILL BE SAVED ON UNIT   51 AT END OF TIME STEP   40, STRESS PERIOD    3

 DRAWDOWN WILL BE SAVED ON UNIT   52 AT END OF TIME STEP   40, STRESS PERIOD    3
1
  VOLUMETRIC BUDGET FOR ENTIRE MODEL AT END OF TIME STEP   40, STRESS PERIOD   3
  ------------------------------------------------------------------------------

     CUMULATIVE VOLUMES      L**3       RATES FOR THIS TIME STEP      L**3/T
     ------------------                 ------------------------

           IN:                                      IN:
           ---                                      ---
             STORAGE =     2489247.7500               STORAGE =       45196.8438
       CONSTANT HEAD =           0.0000         CONSTANT HEAD =           0.0000
               WELLS =           0.0000                 WELLS =           0.0000
       RIVER LEAKAGE =           0.0000         RIVER LEAKAGE =           0.0000
            RECHARGE =     4163985.0000              RECHARGE =       20261.7871

            TOTAL IN =     6653233.0000              TOTAL IN =       65458.6328

          OUT:                                     OUT:
          ----                                     ----
             STORAGE =      790712.7500               STORAGE =           0.0000
       CONSTANT HEAD =           0.0000         CONSTANT HEAD =           0.0000
               WELLS =       71832.2656                 WELLS =         509.4487
       RIVER LEAKAGE =     5790489.0000         RIVER LEAKAGE =       64937.7930
            RECHARGE =           0.0000              RECHARGE =           0.0000

           TOTAL OUT =     6653034.0000             TOTAL OUT =       65447.2422

            IN - OUT =         199.0000              IN - OUT =          11.3906

 PERCENT DISCREPANCY =           0.00     PERCENT DISCREPANCY =           0.02






         TIME SUMMARY AT END OF TIME STEP   40 IN STRESS PERIOD    3
                    SECONDS     MINUTES      HOURS       DAYS        YEARS
                    -----------------------------------------------------------
   TIME STEP LENGTH  86400.      1440.0      24.000      1.0000     2.73785E-03
 STRESS PERIOD TIME 3.45600E+06  57600.      960.00      40.000     0.10951    
         TOTAL TIME 1.21824E+07 2.03040E+05  3384.0      141.00     0.38604    
1

 SOLVING FOR HEAD 

    ------------------------------------------------
       NWT REQUIRED            3 OUTER ITERATIONS 
       AND A TOTAL OF          3 INNER ITERATIONS.
    ------------------------------------------------

 OUTPUT CONTROL FOR STRESS PERIOD    3   TIME STEP   41
    SAVE HEAD FOR ALL LAYERS
    SAVE DRAWDOWN FOR ALL LAYERS
    SAVE BUDGET
    PRINT HEAD FOR ALL LAYERS
    PRINT BUDGET
1
              HEAD IN LAYER   1 AT END OF TIME STEP  41 IN STRESS PERIOD    3
  ---------------------------------------------------------------------------

            1           2           3           4           5           6           7           8           9          10
           11          12          13          14          15          16          17          18          19          20
 ........................................................................................................................
   1    0.000       0.000       0.000       0.000       0.000       10.58       10.44       10.87       11.56       11.49    
        10.25       7.373       2.213     -0.4133       5.840       21.63       31.98       37.52       0.000       0.000    
   2    0.000       0.000       0.000       0.000       8.389       7.967       7.169       7.860       9.357       9.638    
        8.770       6.591       2.580     -0.5217       8.426       23.38       33.68       39.58       0.000       0.000    
   3    0.000       0.000       0.000       6.357       6.030       4.072       3.217       3.810       5.261       5.814    
        5.465       4.427       2.815     -0.8140       14.20       26.16       37.12       43.84       0.000       0.000    
   4    0.000       0.000       3.631       3.944       2.730     -0.6818     -0.3641     -0.4984     -0.7962     -0.7251    
      -0.6943     -0.4961       1.355     -0.8957       19.13       32.43       42.17       50.80       0.000       0.000    
   5    0.000       0.000      0.4449     -8.9860E-02  -1.009     -0.2810       4.976       8.321       11.48       12.16    
        9.985     -0.2681     -0.8771      0.4347       26.15       39.72       53.43       64.50       75.42       0.000    
   6    0.000     -0.9175      -1.106     -0.6805       2.096       10.80       16.12       19.78       22.39       23.94    
        23.68       21.60       23.01       28.19       41.03       53.48       67.84       72.92       77.88       0.000    
   7    0.000       9.816       11.39       13.25       16.39       21.42       25.82       29.22       31.25       34.24    
        35.85       37.10       40.10       45.64       54.93       65.17       74.22       80.27       0.000       0.000    
   8    0.000       16.07       20.37       23.01       26.03       29.83       33.60       36.95       39.80       42.72    
        45.32       48.10       52.00       57.60       65.07       73.24       80.73       88.82       0.000       0.000    
   9    0.000       0.000       28.13       29.80       32.37       35.57       38.97       42.28       45.41       48.53    
        51.68       55.17       59.52       65.04       71.73       79.06       86.51       94.47       102.3       107.2    
  10    0.000       0.000       31.88       33.23       35.54       38.48       41.71       44.98       48.21       51.45    
        54.83       58.62       63.14       68.62       75.01       82.01       89.23       96.47       102.8       106.5    

 HEAD WILL BE SAVED ON UNIT   51 AT END OF TIME STEP   41, STRESS PERIOD    3

 DRAWDOWN WILL BE SAVED ON UNIT   52 AT END OF TIME STEP   41, STRESS PERIOD    3
1
  VOLUMETRIC BUDGET FOR ENTIRE MODEL AT END OF TIME STEP   41, STRESS PERIOD   3
  ------------------------------------------------------------------------------

     CUMULATIVE VOLUMES      L**3       RATES FOR THIS TIME STEP      L**3/T
     ------------------                 ------------------------

           IN:                                      IN:
           ---                                      ---
             STORAGE =     2534049.2500               STORAGE =       44801.3984
       CONSTANT HEAD =           0.0000         CONSTANT HEAD =           0.0000
               WELLS =           0.0000                 WELLS =           0.0000
       RIVER LEAKAGE =           0.0000         RIVER LEAKAGE =           0.0000
            RECHARGE =     4184246.7500              RECHARGE =       20261.7871

            TOTAL IN =     6718296.0000              TOTAL IN =       65063.1875

          OUT:                                     OUT:
          ----                                     ----
             STORAGE =      790712.7500               STORAGE =           0.0000
       CONSTANT HEAD =           0.0000         CONSTANT HEAD =           0.0000
               WELLS =       72341.7109                 WELLS =         509.4487
       RIVER LEAKAGE =     5855031.5000         RIVER LEAKAGE =       64542.4453
            RECHARGE =           0.0000              RECHARGE =           0.0000

           TOTAL OUT =     6718086.0000             TOTAL OUT =       65051.8945

            IN - OUT =         210.0000              IN - OUT =          11.2930

 PERCENT DISCREPANCY =           0.00     PERCENT DISCREPANCY =           0.02






         TIME SUMMARY AT END OF TIME STEP   41 IN STRESS PERIOD    3
                    SECONDS     MINUTES      HOURS       DAYS        YEARS
                    -----------------------------------------------------------
   TIME STEP LENGTH  86400.      1440.0      24.000      1.0000     2.73785E-03
 STRESS PERIOD TIME 3.54240E+06  59040.      984.00      41.000     0.11225    
         TOTAL TIME 1.22688E+07 2.04480E+05  3408.0      142.00     0.38877    
1

 SOLVING FOR HEAD 

    ------------------------------------------------
       NWT REQUIRED            3 OUTER ITERATIONS 
       AND A TOTAL OF          3 INNER ITERATIONS.
    ------------------------------------------------

 OUTPUT CONTROL FOR STRESS PERIOD    3   TIME STEP   42
    SAVE HEAD FOR ALL LAYERS
    SAVE DRAWDOWN FOR ALL LAYERS
    SAVE BUDGET
    PRINT HEAD FOR ALL LAYERS
    PRINT BUDGET
1
              HEAD IN LAYER   1 AT END OF TIME STEP  42 IN STRESS PERIOD    3
  ---------------------------------------------------------------------------

            1           2           3           4           5           6           7           8           9          10
           11          12          13          14          15          16          17          18          19          20
 ........................................................................................................................
   1    0.000       0.000       0.000       0.000       0.000       10.58       10.44       10.87       11.56       11.49    
        10.25       7.373       2.211     -0.4177       5.838       21.63       31.98       37.52       0.000       0.000    
   2    0.000       0.000       0.000       0.000       8.388       7.966       7.168       7.859       9.357       9.638    
        8.769       6.591       2.578     -0.5274       8.424       23.38       33.68       39.58       0.000       0.000    
   3    0.000       0.000       0.000       6.356       6.030       4.071       3.215       3.808       5.259       5.813    
        5.464       4.426       2.813     -0.8220       14.20       26.15       37.12       43.84       0.000       0.000    
   4    0.000       0.000       3.630       3.943       2.728     -0.6882     -0.3691     -0.5048     -0.8043     -0.7328    
      -0.7016     -0.5007       1.352     -0.9045       19.13       32.43       42.17       50.80       0.000       0.000    
   5    0.000       0.000      0.4394     -9.2147E-02  -1.018     -0.2862       4.974       8.319       11.48       12.15    
        9.983     -0.2739     -0.8862      0.4261       26.15       39.72       53.43       64.50       75.42       0.000    
   6    0.000     -0.9257      -1.116     -0.6880       2.088       10.80       16.12       19.78       22.39       23.94    
        23.68       21.60       23.01       28.19       41.03       53.48       67.84       72.92       77.88       0.000    
   7    0.000       9.815       11.39       13.25       16.39       21.42       25.82       29.22       31.25       34.24    
        35.85       37.10       40.10       45.64       54.93       65.17       74.22       80.27       0.000       0.000    
   8    0.000       16.06       20.37       23.01       26.03       29.82       33.59       36.95       39.80       42.72    
        45.32       48.10       52.00       57.60       65.06       73.24       80.73       88.82       0.000       0.000    
   9    0.000       0.000       28.13       29.80       32.37       35.57       38.97       42.28       45.41       48.53    
        51.68       55.17       59.51       65.04       71.73       79.06       86.50       94.47       102.3       107.2    
  10    0.000       0.000       31.88       33.23       35.54       38.48       41.71       44.98       48.20       51.45    
        54.83       58.62       63.14       68.62       75.01       82.01       89.23       96.47       102.8       106.5    

 HEAD WILL BE SAVED ON UNIT   51 AT END OF TIME STEP   42, STRESS PERIOD    3

 DRAWDOWN WILL BE SAVED ON UNIT   52 AT END OF TIME STEP   42, STRESS PERIOD    3
1
  VOLUMETRIC BUDGET FOR ENTIRE MODEL AT END OF TIME STEP   42, STRESS PERIOD   3
  ------------------------------------------------------------------------------

     CUMULATIVE VOLUMES      L**3       RATES FOR THIS TIME STEP      L**3/T
     ------------------                 ------------------------

           IN:                                      IN:
           ---                                      ---
             STORAGE =     2578460.0000               STORAGE =       44410.6797
       CONSTANT HEAD =           0.0000         CONSTANT HEAD =           0.0000
               WELLS =           0.0000                 WELLS =           0.0000
       RIVER LEAKAGE =           0.0000         RIVER LEAKAGE =           0.0000
            RECHARGE =     4204508.5000              RECHARGE =       20261.7871

            TOTAL IN =     6782968.5000              TOTAL IN =       64672.4688

          OUT:                                     OUT:
          ----                                     ----
             STORAGE =      790712.7500               STORAGE =           0.0000
       CONSTANT HEAD =           0.0000         CONSTANT HEAD =           0.0000
               WELLS =       72851.1562                 WELLS =         509.4487
       RIVER LEAKAGE =     5919183.5000         RIVER LEAKAGE =       64151.8242
            RECHARGE =           0.0000              RECHARGE =           0.0000

           TOTAL OUT =     6782747.5000             TOTAL OUT =       64661.2734

            IN - OUT =         221.0000              IN - OUT =          11.1953

 PERCENT DISCREPANCY =           0.00     PERCENT DISCREPANCY =           0.02






         TIME SUMMARY AT END OF TIME STEP   42 IN STRESS PERIOD    3
                    SECONDS     MINUTES      HOURS       DAYS        YEARS
                    -----------------------------------------------------------
   TIME STEP LENGTH  86400.      1440.0      24.000      1.0000     2.73785E-03
 STRESS PERIOD TIME 3.62880E+06  60480.      1008.0      42.000     0.11499    
         TOTAL TIME 1.23552E+07 2.05920E+05  3432.0      143.00     0.39151    
1

 SOLVING FOR HEAD 

    ------------------------------------------------
       NWT REQUIRED            3 OUTER ITERATIONS 
       AND A TOTAL OF          3 INNER ITERATIONS.
    ------------------------------------------------

 OUTPUT CONTROL FOR STRESS PERIOD    3   TIME STEP   43
    SAVE HEAD FOR ALL LAYERS
    SAVE DRAWDOWN FOR ALL LAYERS
    SAVE BUDGET
    PRINT HEAD FOR ALL LAYERS
    PRINT BUDGET
1
              HEAD IN LAYER   1 AT END OF TIME STEP  43 IN STRESS PERIOD    3
  ---------------------------------------------------------------------------

            1           2           3           4           5           6           7           8           9          10
           11          12          13          14          15          16          17          18          19          20
 ........................................................................................................................
   1    0.000       0.000       0.000       0.000       0.000       10.58       10.44       10.87       11.56       11.49    
        10.24       7.372       2.209     -0.4220       5.837       21.63       31.98       37.52       0.000       0.000    
   2    0.000       0.000       0.000       0.000       8.388       7.965       7.167       7.858       9.356       9.637    
        8.768       6.590       2.577     -0.5330       8.423       23.38       33.68       39.58       0.000       0.000    
   3    0.000       0.000       0.000       6.356       6.029       4.069       3.213       3.806       5.258       5.812    
        5.462       4.425       2.812     -0.8299       14.20       26.15       37.12       43.84       0.000       0.000    
   4    0.000       0.000       3.629       3.942       2.725     -0.6946     -0.3740     -0.5111     -0.8122     -0.7405    
      -0.7089     -0.5053       1.350     -0.9133       19.13       32.43       42.17       50.80       0.000       0.000    
   5    0.000       0.000      0.4339     -9.4431E-02  -1.026     -0.2913       4.972       8.317       11.48       12.15    
        9.981     -0.2796     -0.8952      0.4178       26.15       39.72       53.43       64.50       75.42       0.000    
   6    0.000     -0.9339      -1.125     -0.6954       2.081       10.80       16.12       19.78       22.39       23.94    
        23.68       21.60       23.01       28.19       41.03       53.48       67.84       72.92       77.88       0.000    
   7    0.000       9.813       11.39       13.25       16.38       21.42       25.82       29.22       31.24       34.24    
        35.85       37.10       40.09       45.64       54.92       65.17       74.22       80.27       0.000       0.000    
   8    0.000       16.06       20.37       23.01       26.03       29.82       33.59       36.95       39.80       42.72    
        45.32       48.10       52.00       57.60       65.06       73.24       80.73       88.82       0.000       0.000    
   9    0.000       0.000       28.13       29.80       32.37       35.57       38.97       42.28       45.41       48.53    
        51.67       55.17       59.51       65.04       71.73       79.06       86.50       94.47       102.3       107.2    
  10    0.000       0.000       31.88       33.23       35.54       38.48       41.71       44.98       48.20       51.45    
        54.83       58.62       63.14       68.62       75.01       82.01       89.23       96.47       102.8       106.5    

 HEAD WILL BE SAVED ON UNIT   51 AT END OF TIME STEP   43, STRESS PERIOD    3

 DRAWDOWN WILL BE SAVED ON UNIT   52 AT END OF TIME STEP   43, STRESS PERIOD    3
1
  VOLUMETRIC BUDGET FOR ENTIRE MODEL AT END OF TIME STEP   43, STRESS PERIOD   3
  ------------------------------------------------------------------------------

     CUMULATIVE VOLUMES      L**3       RATES FOR THIS TIME STEP      L**3/T
     ------------------                 ------------------------

           IN:                                      IN:
           ---                                      ---
             STORAGE =     2622484.5000               STORAGE =       44024.6133
       CONSTANT HEAD =           0.0000         CONSTANT HEAD =           0.0000
               WELLS =           0.0000                 WELLS =           0.0000
       RIVER LEAKAGE =           0.0000         RIVER LEAKAGE =           0.0000
            RECHARGE =     4224770.5000              RECHARGE =       20261.7871

            TOTAL IN =     6847255.0000              TOTAL IN =       64286.3984

          OUT:                                     OUT:
          ----                                     ----
             STORAGE =      790712.7500               STORAGE =           0.0000
       CONSTANT HEAD =           0.0000         CONSTANT HEAD =           0.0000
               WELLS =       73360.6016                 WELLS =         509.4487
       RIVER LEAKAGE =     5982949.5000         RIVER LEAKAGE =       63765.8594
            RECHARGE =           0.0000              RECHARGE =           0.0000

           TOTAL OUT =     6847023.0000             TOTAL OUT =       64275.3086

            IN - OUT =         232.0000              IN - OUT =          11.0898

 PERCENT DISCREPANCY =           0.00     PERCENT DISCREPANCY =           0.02






         TIME SUMMARY AT END OF TIME STEP   43 IN STRESS PERIOD    3
                    SECONDS     MINUTES      HOURS       DAYS        YEARS
                    -----------------------------------------------------------
   TIME STEP LENGTH  86400.      1440.0      24.000      1.0000     2.73785E-03
 STRESS PERIOD TIME 3.71520E+06  61920.      1032.0      43.000     0.11773    
         TOTAL TIME 1.24416E+07 2.07360E+05  3456.0      144.00     0.39425    
1

 SOLVING FOR HEAD 

    ------------------------------------------------
       NWT REQUIRED            3 OUTER ITERATIONS 
       AND A TOTAL OF          3 INNER ITERATIONS.
    ------------------------------------------------

 OUTPUT CONTROL FOR STRESS PERIOD    3   TIME STEP   44
    SAVE HEAD FOR ALL LAYERS
    SAVE DRAWDOWN FOR ALL LAYERS
    SAVE BUDGET
    PRINT HEAD FOR ALL LAYERS
    PRINT BUDGET
1
              HEAD IN LAYER   1 AT END OF TIME STEP  44 IN STRESS PERIOD    3
  ---------------------------------------------------------------------------

            1           2           3           4           5           6           7           8           9          10
           11          12          13          14          15          16          17          18          19          20
 ........................................................................................................................
   1    0.000       0.000       0.000       0.000       0.000       10.58       10.44       10.87       11.56       11.49    
        10.24       7.371       2.207     -0.4263       5.835       21.63       31.98       37.52       0.000       0.000    
   2    0.000       0.000       0.000       0.000       8.387       7.965       7.167       7.858       9.355       9.636    
        8.768       6.589       2.575     -0.5385       8.421       23.38       33.67       39.58       0.000       0.000    
   3    0.000       0.000       0.000       6.355       6.028       4.067       3.211       3.804       5.256       5.810    
        5.461       4.424       2.811     -0.8377       14.20       26.15       37.12       43.84       0.000       0.000    
   4    0.000       0.000       3.628       3.941       2.723     -0.7010     -0.3790     -0.5174     -0.8201     -0.7481    
      -0.7160     -0.5099       1.347     -0.9218       19.13       32.43       42.17       50.80       0.000       0.000    
   5    0.000       0.000      0.4284     -9.6714E-02  -1.034     -0.2964       4.970       8.316       11.48       12.15    
        9.980     -0.2853     -0.9040      0.4098       26.15       39.72       53.43       64.50       75.42       0.000    
   6    0.000     -0.9420      -1.134     -0.7027       2.074       10.80       16.12       19.78       22.39       23.94    
        23.68       21.60       23.01       28.18       41.03       53.48       67.84       72.92       77.88       0.000    
   7    0.000       9.812       11.39       13.25       16.38       21.42       25.82       29.21       31.24       34.24    
        35.85       37.10       40.09       45.64       54.92       65.17       74.22       80.27       0.000       0.000    
   8    0.000       16.06       20.37       23.01       26.03       29.82       33.59       36.95       39.80       42.72    
        45.32       48.10       52.00       57.59       65.06       73.24       80.73       88.82       0.000       0.000    
   9    0.000       0.000       28.12       29.80       32.37       35.57       38.97       42.28       45.41       48.53    
        51.67       55.17       59.51       65.03       71.73       79.06       86.50       94.47       102.3       107.2    
  10    0.000       0.000       31.88       33.23       35.54       38.48       41.71       44.98       48.20       51.45    
        54.83       58.62       63.14       68.62       75.01       82.01       89.23       96.47       102.8       106.5    

 HEAD WILL BE SAVED ON UNIT   51 AT END OF TIME STEP   44, STRESS PERIOD    3

 DRAWDOWN WILL BE SAVED ON UNIT   52 AT END OF TIME STEP   44, STRESS PERIOD    3
1
  VOLUMETRIC BUDGET FOR ENTIRE MODEL AT END OF TIME STEP   44, STRESS PERIOD   3
  ------------------------------------------------------------------------------

     CUMULATIVE VOLUMES      L**3       RATES FOR THIS TIME STEP      L**3/T
     ------------------                 ------------------------

           IN:                                      IN:
           ---                                      ---
             STORAGE =     2666127.7500               STORAGE =       43643.1406
       CONSTANT HEAD =           0.0000         CONSTANT HEAD =           0.0000
               WELLS =           0.0000                 WELLS =           0.0000
       RIVER LEAKAGE =           0.0000         RIVER LEAKAGE =           0.0000
            RECHARGE =     4245032.5000              RECHARGE =       20261.7871

            TOTAL IN =     6911160.0000              TOTAL IN =       63904.9297

          OUT:                                     OUT:
          ----                                     ----
             STORAGE =      790712.7500               STORAGE =           0.0000
       CONSTANT HEAD =           0.0000         CONSTANT HEAD =           0.0000
               WELLS =       73870.0469                 WELLS =         509.4487
       RIVER LEAKAGE =     6046334.0000         RIVER LEAKAGE =       63384.4805
            RECHARGE =           0.0000              RECHARGE =           0.0000

           TOTAL OUT =     6910917.0000             TOTAL OUT =       63893.9297

            IN - OUT =         243.0000              IN - OUT =          11.0000

 PERCENT DISCREPANCY =           0.00     PERCENT DISCREPANCY =           0.02






         TIME SUMMARY AT END OF TIME STEP   44 IN STRESS PERIOD    3
                    SECONDS     MINUTES      HOURS       DAYS        YEARS
                    -----------------------------------------------------------
   TIME STEP LENGTH  86400.      1440.0      24.000      1.0000     2.73785E-03
 STRESS PERIOD TIME 3.80160E+06  63360.      1056.0      44.000     0.12047    
         TOTAL TIME 1.25280E+07 2.08800E+05  3480.0      145.00     0.39699    
1

 SOLVING FOR HEAD 

    ------------------------------------------------
       NWT REQUIRED            3 OUTER ITERATIONS 
       AND A TOTAL OF          3 INNER ITERATIONS.
    ------------------------------------------------

 OUTPUT CONTROL FOR STRESS PERIOD    3   TIME STEP   45
    SAVE HEAD FOR ALL LAYERS
    SAVE DRAWDOWN FOR ALL LAYERS
    SAVE BUDGET
    PRINT HEAD FOR ALL LAYERS
    PRINT BUDGET
1
              HEAD IN LAYER   1 AT END OF TIME STEP  45 IN STRESS PERIOD    3
  ---------------------------------------------------------------------------

            1           2           3           4           5           6           7           8           9          10
           11          12          13          14          15          16          17          18          19          20
 ........................................................................................................................
   1    0.000       0.000       0.000       0.000       0.000       10.58       10.44       10.87       11.56       11.49    
        10.24       7.371       2.206     -0.4305       5.833       21.63       31.98       37.52       0.000       0.000    
   2    0.000       0.000       0.000       0.000       8.386       7.964       7.166       7.857       9.355       9.636    
        8.767       6.588       2.573     -0.5441       8.419       23.38       33.67       39.58       0.000       0.000    
   3    0.000       0.000       0.000       6.354       6.027       4.066       3.209       3.802       5.255       5.809    
        5.460       4.423       2.809     -0.8454       14.20       26.15       37.12       43.84       0.000       0.000    
   4    0.000       0.000       3.627       3.940       2.721     -0.7073     -0.3839     -0.5236     -0.8279     -0.7557    
      -0.7232     -0.5144       1.345     -0.9303       19.13       32.42       42.17       50.80       0.000       0.000    
   5    0.000       0.000      0.4229     -9.8995E-02  -1.042     -0.3015       4.968       8.314       11.48       12.15    
        9.978     -0.2910     -0.9127      0.4021       26.14       39.72       53.43       64.50       75.42       0.000    
   6    0.000     -0.9499      -1.143     -0.7100       2.067       10.79       16.12       19.78       22.39       23.94    
        23.68       21.60       23.00       28.18       41.03       53.48       67.84       72.92       77.88       0.000    
   7    0.000       9.810       11.39       13.25       16.38       21.41       25.82       29.21       31.24       34.24    
        35.85       37.10       40.09       45.64       54.92       65.17       74.22       80.27       0.000       0.000    
   8    0.000       16.06       20.37       23.00       26.03       29.82       33.59       36.95       39.80       42.72    
        45.32       48.10       52.00       57.59       65.06       73.23       80.73       88.82       0.000       0.000    
   9    0.000       0.000       28.12       29.80       32.37       35.57       38.97       42.28       45.41       48.53    
        51.67       55.17       59.51       65.03       71.72       79.06       86.50       94.47       102.3       107.2    
  10    0.000       0.000       31.88       33.23       35.54       38.48       41.71       44.98       48.20       51.45    
        54.83       58.62       63.14       68.62       75.01       82.01       89.23       96.47       102.8       106.5    

 HEAD WILL BE SAVED ON UNIT   51 AT END OF TIME STEP   45, STRESS PERIOD    3

 DRAWDOWN WILL BE SAVED ON UNIT   52 AT END OF TIME STEP   45, STRESS PERIOD    3
1
  VOLUMETRIC BUDGET FOR ENTIRE MODEL AT END OF TIME STEP   45, STRESS PERIOD   3
  ------------------------------------------------------------------------------

     CUMULATIVE VOLUMES      L**3       RATES FOR THIS TIME STEP      L**3/T
     ------------------                 ------------------------

           IN:                                      IN:
           ---                                      ---
             STORAGE =     2709394.0000               STORAGE =       43266.1914
       CONSTANT HEAD =           0.0000         CONSTANT HEAD =           0.0000
               WELLS =           0.0000                 WELLS =           0.0000
       RIVER LEAKAGE =           0.0000         RIVER LEAKAGE =           0.0000
            RECHARGE =     4265294.5000              RECHARGE =       20261.7871

            TOTAL IN =     6974688.5000              TOTAL IN =       63527.9766

          OUT:                                     OUT:
          ----                                     ----
             STORAGE =      790712.7500               STORAGE =           0.0000
       CONSTANT HEAD =           0.0000         CONSTANT HEAD =           0.0000
               WELLS =       74379.4922                 WELLS =         509.4487
       RIVER LEAKAGE =     6109341.5000         RIVER LEAKAGE =       63007.6289
            RECHARGE =           0.0000              RECHARGE =           0.0000

           TOTAL OUT =     6974434.0000             TOTAL OUT =       63517.0781

            IN - OUT =         254.5000              IN - OUT =          10.8984

 PERCENT DISCREPANCY =           0.00     PERCENT DISCREPANCY =           0.02






         TIME SUMMARY AT END OF TIME STEP   45 IN STRESS PERIOD    3
                    SECONDS     MINUTES      HOURS       DAYS        YEARS
                    -----------------------------------------------------------
   TIME STEP LENGTH  86400.      1440.0      24.000      1.0000     2.73785E-03
 STRESS PERIOD TIME 3.88800E+06  64800.      1080.0      45.000     0.12320    
         TOTAL TIME 1.26144E+07 2.10240E+05  3504.0      146.00     0.39973    
1

 SOLVING FOR HEAD 

    ------------------------------------------------
       NWT REQUIRED            3 OUTER ITERATIONS 
       AND A TOTAL OF          3 INNER ITERATIONS.
    ------------------------------------------------

 OUTPUT CONTROL FOR STRESS PERIOD    3   TIME STEP   46
    SAVE HEAD FOR ALL LAYERS
    SAVE DRAWDOWN FOR ALL LAYERS
    SAVE BUDGET
    PRINT HEAD FOR ALL LAYERS
    PRINT BUDGET
1
              HEAD IN LAYER   1 AT END OF TIME STEP  46 IN STRESS PERIOD    3
  ---------------------------------------------------------------------------

            1           2           3           4           5           6           7           8           9          10
           11          12          13          14          15          16          17          18          19          20
 ........................................................................................................................
   1    0.000       0.000       0.000       0.000       0.000       10.58       10.43       10.87       11.56       11.49    
        10.24       7.370       2.204     -0.4348       5.831       21.62       31.98       37.52       0.000       0.000    
   2    0.000       0.000       0.000       0.000       8.386       7.963       7.165       7.856       9.354       9.635    
        8.767       6.588       2.571     -0.5496       8.417       23.38       33.67       39.58       0.000       0.000    
   3    0.000       0.000       0.000       6.354       6.027       4.064       3.207       3.800       5.253       5.808    
        5.459       4.421       2.808     -0.8530       14.20       26.15       37.12       43.84       0.000       0.000    
   4    0.000       0.000       3.626       3.939       2.719     -0.7135     -0.3888     -0.5297     -0.8356     -0.7631    
      -0.7302     -0.5190       1.342     -0.9387       19.13       32.42       42.17       50.80       0.000       0.000    
   5    0.000       0.000      0.4175     -0.1013      -1.050     -0.3066       4.966       8.313       11.47       12.15    
        9.976     -0.2966     -0.9213      0.3947       26.14       39.72       53.43       64.50       75.42       0.000    
   6    0.000     -0.9578      -1.152     -0.7172       2.060       10.79       16.12       19.78       22.39       23.94    
        23.68       21.60       23.00       28.18       41.02       53.48       67.84       72.92       77.87       0.000    
   7    0.000       9.809       11.38       13.25       16.38       21.41       25.82       29.21       31.24       34.23    
        35.85       37.10       40.09       45.64       54.92       65.17       74.21       80.27       0.000       0.000    
   8    0.000       16.06       20.37       23.00       26.03       29.82       33.59       36.95       39.80       42.72    
        45.32       48.09       52.00       57.59       65.06       73.23       80.73       88.82       0.000       0.000    
   9    0.000       0.000       28.12       29.80       32.37       35.57       38.97       42.28       45.41       48.53    
        51.67       55.17       59.51       65.03       71.72       79.06       86.50       94.47       102.3       107.2    
  10    0.000       0.000       31.88       33.23       35.54       38.48       41.71       44.98       48.20       51.45    
        54.83       58.62       63.14       68.62       75.01       82.00       89.23       96.46       102.8       106.5    

 HEAD WILL BE SAVED ON UNIT   51 AT END OF TIME STEP   46, STRESS PERIOD    3

 DRAWDOWN WILL BE SAVED ON UNIT   52 AT END OF TIME STEP   46, STRESS PERIOD    3
1
  VOLUMETRIC BUDGET FOR ENTIRE MODEL AT END OF TIME STEP   46, STRESS PERIOD   3
  ------------------------------------------------------------------------------

     CUMULATIVE VOLUMES      L**3       RATES FOR THIS TIME STEP      L**3/T
     ------------------                 ------------------------

           IN:                                      IN:
           ---                                      ---
             STORAGE =     2752287.7500               STORAGE =       42893.7031
       CONSTANT HEAD =           0.0000         CONSTANT HEAD =           0.0000
               WELLS =           0.0000                 WELLS =           0.0000
       RIVER LEAKAGE =           0.0000         RIVER LEAKAGE =           0.0000
            RECHARGE =     4285556.5000              RECHARGE =       20261.7871

            TOTAL IN =     7037844.0000              TOTAL IN =       63155.4922

          OUT:                                     OUT:
          ----                                     ----
             STORAGE =      790712.7500               STORAGE =           0.0000
       CONSTANT HEAD =           0.0000         CONSTANT HEAD =           0.0000
               WELLS =       74888.9375                 WELLS =         509.4487
       RIVER LEAKAGE =     6171976.5000         RIVER LEAKAGE =       62635.2305
            RECHARGE =           0.0000              RECHARGE =           0.0000

           TOTAL OUT =     7037578.0000             TOTAL OUT =       63144.6797

            IN - OUT =         266.0000              IN - OUT =          10.8125

 PERCENT DISCREPANCY =           0.00     PERCENT DISCREPANCY =           0.02






         TIME SUMMARY AT END OF TIME STEP   46 IN STRESS PERIOD    3
                    SECONDS     MINUTES      HOURS       DAYS        YEARS
                    -----------------------------------------------------------
   TIME STEP LENGTH  86400.      1440.0      24.000      1.0000     2.73785E-03
 STRESS PERIOD TIME 3.97440E+06  66240.      1104.0      46.000     0.12594    
         TOTAL TIME 1.27008E+07 2.11680E+05  3528.0      147.00     0.40246    
1

 SOLVING FOR HEAD 

    ------------------------------------------------
       NWT REQUIRED            3 OUTER ITERATIONS 
       AND A TOTAL OF          3 INNER ITERATIONS.
    ------------------------------------------------

 OUTPUT CONTROL FOR STRESS PERIOD    3   TIME STEP   47
    SAVE HEAD FOR ALL LAYERS
    SAVE DRAWDOWN FOR ALL LAYERS
    SAVE BUDGET
    PRINT HEAD FOR ALL LAYERS
    PRINT BUDGET
1
              HEAD IN LAYER   1 AT END OF TIME STEP  47 IN STRESS PERIOD    3
  ---------------------------------------------------------------------------

            1           2           3           4           5           6           7           8           9          10
           11          12          13          14          15          16          17          18          19          20
 ........................................................................................................................
   1    0.000       0.000       0.000       0.000       0.000       10.58       10.43       10.87       11.55       11.49    
        10.24       7.369       2.202     -0.4390       5.829       21.62       31.98       37.52       0.000       0.000    
   2    0.000       0.000       0.000       0.000       8.385       7.963       7.164       7.855       9.353       9.634    
        8.766       6.587       2.570     -0.5550       8.416       23.38       33.67       39.57       0.000       0.000    
   3    0.000       0.000       0.000       6.353       6.026       4.062       3.205       3.798       5.252       5.806    
        5.457       4.420       2.806     -0.8606       14.20       26.15       37.12       43.83       0.000       0.000    
   4    0.000       0.000       3.625       3.938       2.717     -0.7197     -0.3936     -0.5358     -0.8432     -0.7705    
      -0.7372     -0.5235       1.340     -0.9469       19.12       32.42       42.17       50.80       0.000       0.000    
   5    0.000       0.000      0.4121     -0.1036      -1.058     -0.3116       4.964       8.311       11.47       12.15    
        9.974     -0.3021     -0.9297      0.3875       26.14       39.72       53.43       64.50       75.42       0.000    
   6    0.000     -0.9656      -1.160     -0.7243       2.053       10.79       16.12       19.77       22.39       23.94    
        23.68       21.60       23.00       28.18       41.02       53.48       67.83       72.92       77.87       0.000    
   7    0.000       9.807       11.38       13.25       16.38       21.41       25.82       29.21       31.24       34.23    
        35.85       37.10       40.09       45.64       54.92       65.17       74.21       80.27       0.000       0.000    
   8    0.000       16.06       20.37       23.00       26.03       29.82       33.59       36.95       39.80       42.72    
        45.32       48.09       52.00       57.59       65.06       73.23       80.73       88.82       0.000       0.000    
   9    0.000       0.000       28.12       29.80       32.36       35.57       38.97       42.28       45.41       48.53    
        51.67       55.17       59.51       65.03       71.72       79.06       86.50       94.47       102.3       107.2    
  10    0.000       0.000       31.88       33.23       35.54       38.48       41.71       44.98       48.20       51.45    
        54.83       58.61       63.14       68.61       75.01       82.00       89.23       96.46       102.8       106.5    

 HEAD WILL BE SAVED ON UNIT   51 AT END OF TIME STEP   47, STRESS PERIOD    3

 DRAWDOWN WILL BE SAVED ON UNIT   52 AT END OF TIME STEP   47, STRESS PERIOD    3
1
  VOLUMETRIC BUDGET FOR ENTIRE MODEL AT END OF TIME STEP   47, STRESS PERIOD   3
  ------------------------------------------------------------------------------

     CUMULATIVE VOLUMES      L**3       RATES FOR THIS TIME STEP      L**3/T
     ------------------                 ------------------------

           IN:                                      IN:
           ---                                      ---
             STORAGE =     2794813.2500               STORAGE =       42525.6055
       CONSTANT HEAD =           0.0000         CONSTANT HEAD =           0.0000
               WELLS =           0.0000                 WELLS =           0.0000
       RIVER LEAKAGE =           0.0000         RIVER LEAKAGE =           0.0000
            RECHARGE =     4305818.5000              RECHARGE =       20261.7871

            TOTAL IN =     7100632.0000              TOTAL IN =       62787.3906

          OUT:                                     OUT:
          ----                                     ----
             STORAGE =      790712.7500               STORAGE =           0.0000
       CONSTANT HEAD =           0.0000         CONSTANT HEAD =           0.0000
               WELLS =       75398.3828                 WELLS =         509.4487
       RIVER LEAKAGE =     6234243.5000         RIVER LEAKAGE =       62267.2305
            RECHARGE =           0.0000              RECHARGE =           0.0000

           TOTAL OUT =     7100354.5000             TOTAL OUT =       62776.6797

            IN - OUT =         277.5000              IN - OUT =          10.7109

 PERCENT DISCREPANCY =           0.00     PERCENT DISCREPANCY =           0.02






         TIME SUMMARY AT END OF TIME STEP   47 IN STRESS PERIOD    3
                    SECONDS     MINUTES      HOURS       DAYS        YEARS
                    -----------------------------------------------------------
   TIME STEP LENGTH  86400.      1440.0      24.000      1.0000     2.73785E-03
 STRESS PERIOD TIME 4.06080E+06  67680.      1128.0      47.000     0.12868    
         TOTAL TIME 1.27872E+07 2.13120E+05  3552.0      148.00     0.40520    
1

 SOLVING FOR HEAD 

    ------------------------------------------------
       NWT REQUIRED            3 OUTER ITERATIONS 
       AND A TOTAL OF          3 INNER ITERATIONS.
    ------------------------------------------------

 OUTPUT CONTROL FOR STRESS PERIOD    3   TIME STEP   48
    SAVE HEAD FOR ALL LAYERS
    SAVE DRAWDOWN FOR ALL LAYERS
    SAVE BUDGET
    PRINT HEAD FOR ALL LAYERS
    PRINT BUDGET
1
              HEAD IN LAYER   1 AT END OF TIME STEP  48 IN STRESS PERIOD    3
  ---------------------------------------------------------------------------

            1           2           3           4           5           6           7           8           9          10
           11          12          13          14          15          16          17          18          19          20
 ........................................................................................................................
   1    0.000       0.000       0.000       0.000       0.000       10.58       10.43       10.87       11.55       11.49    
        10.24       7.369       2.200     -0.4433       5.828       21.62       31.98       37.52       0.000       0.000    
   2    0.000       0.000       0.000       0.000       8.385       7.962       7.163       7.855       9.353       9.634    
        8.765       6.586       2.568     -0.5604       8.414       23.38       33.67       39.57       0.000       0.000    
   3    0.000       0.000       0.000       6.352       6.025       4.060       3.203       3.796       5.251       5.805    
        5.456       4.419       2.805     -0.8680       14.20       26.15       37.11       43.83       0.000       0.000    
   4    0.000       0.000       3.624       3.937       2.715     -0.7258     -0.3984     -0.5419     -0.8508     -0.7777    
      -0.7441     -0.5280       1.337     -0.9550       19.12       32.42       42.17       50.79       0.000       0.000    
   5    0.000       0.000      0.4068     -0.1058      -1.066     -0.3166       4.962       8.309       11.47       12.15    
        9.972     -0.3077     -0.9380      0.3805       26.14       39.72       53.43       64.50       75.42       0.000    
   6    0.000     -0.9733      -1.169     -0.7313       2.046       10.79       16.12       19.77       22.39       23.94    
        23.68       21.59       23.00       28.18       41.02       53.48       67.83       72.92       77.87       0.000    
   7    0.000       9.806       11.38       13.24       16.38       21.41       25.82       29.21       31.24       34.23    
        35.85       37.10       40.09       45.64       54.92       65.17       74.21       80.26       0.000       0.000    
   8    0.000       16.06       20.37       23.00       26.02       29.82       33.59       36.94       39.80       42.72    
        45.32       48.09       52.00       57.59       65.06       73.23       80.73       88.82       0.000       0.000    
   9    0.000       0.000       28.12       29.80       32.36       35.57       38.97       42.28       45.41       48.53    
        51.67       55.17       59.51       65.03       71.72       79.06       86.50       94.47       102.3       107.2    
  10    0.000       0.000       31.88       33.23       35.54       38.48       41.70       44.98       48.20       51.45    
        54.83       58.61       63.14       68.61       75.01       82.00       89.23       96.46       102.8       106.5    

 HEAD WILL BE SAVED ON UNIT   51 AT END OF TIME STEP   48, STRESS PERIOD    3

 DRAWDOWN WILL BE SAVED ON UNIT   52 AT END OF TIME STEP   48, STRESS PERIOD    3
1
  VOLUMETRIC BUDGET FOR ENTIRE MODEL AT END OF TIME STEP   48, STRESS PERIOD   3
  ------------------------------------------------------------------------------

     CUMULATIVE VOLUMES      L**3       RATES FOR THIS TIME STEP      L**3/T
     ------------------                 ------------------------

           IN:                                      IN:
           ---                                      ---
             STORAGE =     2836975.0000               STORAGE =       42161.8438
       CONSTANT HEAD =           0.0000         CONSTANT HEAD =           0.0000
               WELLS =           0.0000                 WELLS =           0.0000
       RIVER LEAKAGE =           0.0000         RIVER LEAKAGE =           0.0000
            RECHARGE =     4326080.5000              RECHARGE =       20261.7871

            TOTAL IN =     7163055.5000              TOTAL IN =       62423.6328

          OUT:                                     OUT:
          ----                                     ----
             STORAGE =      790712.7500               STORAGE =           0.0000
       CONSTANT HEAD =           0.0000         CONSTANT HEAD =           0.0000
               WELLS =       75907.8281                 WELLS =         509.4487
       RIVER LEAKAGE =     6296147.0000         RIVER LEAKAGE =       61903.5586
            RECHARGE =           0.0000              RECHARGE =           0.0000

           TOTAL OUT =     7162767.5000             TOTAL OUT =       62413.0078

            IN - OUT =         288.0000              IN - OUT =          10.6250

 PERCENT DISCREPANCY =           0.00     PERCENT DISCREPANCY =           0.02






         TIME SUMMARY AT END OF TIME STEP   48 IN STRESS PERIOD    3
                    SECONDS     MINUTES      HOURS       DAYS        YEARS
                    -----------------------------------------------------------
   TIME STEP LENGTH  86400.      1440.0      24.000      1.0000     2.73785E-03
 STRESS PERIOD TIME 4.14720E+06  69120.      1152.0      48.000     0.13142    
         TOTAL TIME 1.28736E+07 2.14560E+05  3576.0      149.00     0.40794    
1

 SOLVING FOR HEAD 

    ------------------------------------------------
       NWT REQUIRED            3 OUTER ITERATIONS 
       AND A TOTAL OF          3 INNER ITERATIONS.
    ------------------------------------------------

 OUTPUT CONTROL FOR STRESS PERIOD    3   TIME STEP   49
    SAVE HEAD FOR ALL LAYERS
    SAVE DRAWDOWN FOR ALL LAYERS
    SAVE BUDGET
    PRINT HEAD FOR ALL LAYERS
    PRINT BUDGET
1
              HEAD IN LAYER   1 AT END OF TIME STEP  49 IN STRESS PERIOD    3
  ---------------------------------------------------------------------------

            1           2           3           4           5           6           7           8           9          10
           11          12          13          14          15          16          17          18          19          20
 ........................................................................................................................
   1    0.000       0.000       0.000       0.000       0.000       10.58       10.43       10.87       11.55       11.49    
        10.24       7.368       2.198     -0.4475       5.826       21.62       31.98       37.52       0.000       0.000    
   2    0.000       0.000       0.000       0.000       8.384       7.961       7.163       7.854       9.352       9.633    
        8.765       6.586       2.566     -0.5658       8.412       23.38       33.67       39.57       0.000       0.000    
   3    0.000       0.000       0.000       6.352       6.024       4.059       3.201       3.794       5.249       5.803    
        5.455       4.418       2.804     -0.8754       14.19       26.15       37.11       43.83       0.000       0.000    
   4    0.000       0.000       3.623       3.936       2.713     -0.7319     -0.4032     -0.5479     -0.8582     -0.7850    
      -0.7509     -0.5325       1.335     -0.9631       19.12       32.42       42.16       50.79       0.000       0.000    
   5    0.000       0.000      0.4015     -0.1081      -1.074     -0.3216       4.960       8.308       11.47       12.14    
        9.971     -0.3131     -0.9462      0.3738       26.14       39.72       53.43       64.50       75.42       0.000    
   6    0.000     -0.9809      -1.177     -0.7383       2.039       10.79       16.12       19.77       22.39       23.94    
        23.68       21.59       23.00       28.17       41.02       53.48       67.83       72.92       77.87       0.000    
   7    0.000       9.804       11.38       13.24       16.38       21.41       25.82       29.21       31.24       34.23    
        35.85       37.10       40.09       45.64       54.92       65.17       74.21       80.26       0.000       0.000    
   8    0.000       16.06       20.37       23.00       26.02       29.82       33.59       36.94       39.80       42.72    
        45.32       48.09       52.00       57.59       65.06       73.23       80.73       88.82       0.000       0.000    
   9    0.000       0.000       28.12       29.79       32.36       35.57       38.97       42.28       45.41       48.53    
        51.67       55.17       59.51       65.03       71.72       79.06       86.50       94.47       102.3       107.2    
  10    0.000       0.000       31.88       33.23       35.53       38.48       41.70       44.98       48.20       51.45    
        54.83       58.61       63.14       68.61       75.01       82.00       89.23       96.46       102.8       106.5    

 HEAD WILL BE SAVED ON UNIT   51 AT END OF TIME STEP   49, STRESS PERIOD    3

 DRAWDOWN WILL BE SAVED ON UNIT   52 AT END OF TIME STEP   49, STRESS PERIOD    3
1
  VOLUMETRIC BUDGET FOR ENTIRE MODEL AT END OF TIME STEP   49, STRESS PERIOD   3
  ------------------------------------------------------------------------------

     CUMULATIVE VOLUMES      L**3       RATES FOR THIS TIME STEP      L**3/T
     ------------------                 ------------------------

           IN:                                      IN:
           ---                                      ---
             STORAGE =     2878777.2500               STORAGE =       41802.3516
       CONSTANT HEAD =           0.0000         CONSTANT HEAD =           0.0000
               WELLS =           0.0000                 WELLS =           0.0000
       RIVER LEAKAGE =           0.0000         RIVER LEAKAGE =           0.0000
            RECHARGE =     4346342.5000              RECHARGE =       20261.7871

            TOTAL IN =     7225120.0000              TOTAL IN =       62064.1406

          OUT:                                     OUT:
          ----                                     ----
             STORAGE =      790712.7500               STORAGE =           0.0000
       CONSTANT HEAD =           0.0000         CONSTANT HEAD =           0.0000
               WELLS =       76417.2734                 WELLS =         509.4487
       RIVER LEAKAGE =     6357691.0000         RIVER LEAKAGE =       61544.1602
            RECHARGE =           0.0000              RECHARGE =           0.0000

           TOTAL OUT =     7224821.0000             TOTAL OUT =       62053.6094

            IN - OUT =         299.0000              IN - OUT =          10.5312

 PERCENT DISCREPANCY =           0.00     PERCENT DISCREPANCY =           0.02






         TIME SUMMARY AT END OF TIME STEP   49 IN STRESS PERIOD    3
                    SECONDS     MINUTES      HOURS       DAYS        YEARS
                    -----------------------------------------------------------
   TIME STEP LENGTH  86400.      1440.0      24.000      1.0000     2.73785E-03
 STRESS PERIOD TIME 4.23360E+06  70560.      1176.0      49.000     0.13415    
         TOTAL TIME 1.29600E+07 2.16000E+05  3600.0      150.00     0.41068    
1

 SOLVING FOR HEAD 

    ------------------------------------------------
       NWT REQUIRED            3 OUTER ITERATIONS 
       AND A TOTAL OF          3 INNER ITERATIONS.
    ------------------------------------------------

 OUTPUT CONTROL FOR STRESS PERIOD    3   TIME STEP   50
    SAVE HEAD FOR ALL LAYERS
    SAVE DRAWDOWN FOR ALL LAYERS
    SAVE BUDGET
    PRINT HEAD FOR ALL LAYERS
    PRINT BUDGET
1
              HEAD IN LAYER   1 AT END OF TIME STEP  50 IN STRESS PERIOD    3
  ---------------------------------------------------------------------------

            1           2           3           4           5           6           7           8           9          10
           11          12          13          14          15          16          17          18          19          20
 ........................................................................................................................
   1    0.000       0.000       0.000       0.000       0.000       10.58       10.43       10.87       11.55       11.49    
        10.24       7.367       2.196     -0.4517       5.824       21.62       31.98       37.52       0.000       0.000    
   2    0.000       0.000       0.000       0.000       8.383       7.960       7.162       7.853       9.351       9.632    
        8.764       6.585       2.564     -0.5712       8.410       23.38       33.67       39.57       0.000       0.000    
   3    0.000       0.000       0.000       6.351       6.023       4.057       3.198       3.792       5.248       5.802    
        5.453       4.417       2.802     -0.8826       14.19       26.15       37.11       43.83       0.000       0.000    
   4    0.000       0.000       3.622       3.935       2.710     -0.7380     -0.4080     -0.5538     -0.8655     -0.7921    
      -0.7577     -0.5369       1.332     -0.9710       19.12       32.42       42.16       50.79       0.000       0.000    
   5    0.000       0.000      0.3962     -0.1104      -1.081     -0.3265       4.958       8.306       11.47       12.14    
        9.969     -0.3186     -0.9542      0.3673       26.14       39.71       53.43       64.49       75.42       0.000    
   6    0.000     -0.9884      -1.185     -0.7452       2.033       10.79       16.12       19.77       22.39       23.94    
        23.68       21.59       23.00       28.17       41.02       53.48       67.83       72.92       77.87       0.000    
   7    0.000       9.803       11.38       13.24       16.38       21.41       25.82       29.21       31.24       34.23    
        35.85       37.10       40.09       45.64       54.92       65.17       74.21       80.26       0.000       0.000    
   8    0.000       16.06       20.37       23.00       26.02       29.82       33.59       36.94       39.80       42.72    
        45.32       48.09       52.00       57.59       65.06       73.23       80.73       88.82       0.000       0.000    
   9    0.000       0.000       28.12       29.79       32.36       35.57       38.97       42.28       45.41       48.53    
        51.67       55.16       59.51       65.03       71.72       79.05       86.50       94.47       102.3       107.2    
  10    0.000       0.000       31.87       33.23       35.53       38.47       41.70       44.97       48.20       51.45    
        54.83       58.61       63.14       68.61       75.01       82.00       89.23       96.46       102.8       106.5    

 HEAD WILL BE SAVED ON UNIT   51 AT END OF TIME STEP   50, STRESS PERIOD    3

 DRAWDOWN WILL BE SAVED ON UNIT   52 AT END OF TIME STEP   50, STRESS PERIOD    3
1
  VOLUMETRIC BUDGET FOR ENTIRE MODEL AT END OF TIME STEP   50, STRESS PERIOD   3
  ------------------------------------------------------------------------------

     CUMULATIVE VOLUMES      L**3       RATES FOR THIS TIME STEP      L**3/T
     ------------------                 ------------------------

           IN:                                      IN:
           ---                                      ---
             STORAGE =     2920224.2500               STORAGE =       41447.0703
       CONSTANT HEAD =           0.0000         CONSTANT HEAD =           0.0000
               WELLS =           0.0000                 WELLS =           0.0000
       RIVER LEAKAGE =           0.0000         RIVER LEAKAGE =           0.0000
            RECHARGE =     4366604.5000              RECHARGE =       20261.7871

            TOTAL IN =     7286829.0000              TOTAL IN =       61708.8594

          OUT:                                     OUT:
          ----                                     ----
             STORAGE =      790712.7500               STORAGE =           0.0000
       CONSTANT HEAD =           0.0000         CONSTANT HEAD =           0.0000
               WELLS =       76926.7188                 WELLS =         509.4487
       RIVER LEAKAGE =     6418880.0000         RIVER LEAKAGE =       61188.9688
            RECHARGE =           0.0000              RECHARGE =           0.0000

           TOTAL OUT =     7286519.5000             TOTAL OUT =       61698.4180

            IN - OUT =         309.5000              IN - OUT =          10.4414

 PERCENT DISCREPANCY =           0.00     PERCENT DISCREPANCY =           0.02






         TIME SUMMARY AT END OF TIME STEP   50 IN STRESS PERIOD    3
                    SECONDS     MINUTES      HOURS       DAYS        YEARS
                    -----------------------------------------------------------
   TIME STEP LENGTH  86400.      1440.0      24.000      1.0000     2.73785E-03
 STRESS PERIOD TIME 4.32000E+06  72000.      1200.0      50.000     0.13689    
         TOTAL TIME 1.30464E+07 2.17440E+05  3624.0      151.00     0.41342    
1

 SOLVING FOR HEAD 

    ------------------------------------------------
       NWT REQUIRED            3 OUTER ITERATIONS 
       AND A TOTAL OF          3 INNER ITERATIONS.
    ------------------------------------------------

 OUTPUT CONTROL FOR STRESS PERIOD    3   TIME STEP   51
    SAVE HEAD FOR ALL LAYERS
    SAVE DRAWDOWN FOR ALL LAYERS
    SAVE BUDGET
    PRINT HEAD FOR ALL LAYERS
    PRINT BUDGET
1
              HEAD IN LAYER   1 AT END OF TIME STEP  51 IN STRESS PERIOD    3
  ---------------------------------------------------------------------------

            1           2           3           4           5           6           7           8           9          10
           11          12          13          14          15          16          17          18          19          20
 ........................................................................................................................
   1    0.000       0.000       0.000       0.000       0.000       10.58       10.43       10.87       11.55       11.49    
        10.24       7.366       2.195     -0.4558       5.822       21.62       31.98       37.51       0.000       0.000    
   2    0.000       0.000       0.000       0.000       8.383       7.960       7.161       7.852       9.351       9.632    
        8.763       6.584       2.563     -0.5765       8.409       23.38       33.67       39.57       0.000       0.000    
   3    0.000       0.000       0.000       6.350       6.023       4.055       3.196       3.790       5.246       5.801    
        5.452       4.416       2.801     -0.8898       14.19       26.15       37.11       43.83       0.000       0.000    
   4    0.000       0.000       3.621       3.934       2.708     -0.7440     -0.4128     -0.5597     -0.8728     -0.7991    
      -0.7644     -0.5413       1.330     -0.9787       19.12       32.42       42.16       50.79       0.000       0.000    
   5    0.000       0.000      0.3909     -0.1126      -1.089     -0.3314       4.956       8.304       11.47       12.14    
        9.967     -0.3240     -0.9621      0.3610       26.13       39.71       53.43       64.49       75.42       0.000    
   6    0.000     -0.9959      -1.193     -0.7520       2.026       10.78       16.12       19.77       22.39       23.93    
        23.68       21.59       22.99       28.17       41.02       53.48       67.83       72.92       77.87       0.000    
   7    0.000       9.801       11.38       13.24       16.37       21.41       25.81       29.21       31.24       34.23    
        35.85       37.10       40.09       45.64       54.92       65.17       74.21       80.26       0.000       0.000    
   8    0.000       16.06       20.37       23.00       26.02       29.82       33.59       36.94       39.80       42.71    
        45.32       48.09       51.99       57.59       65.06       73.23       80.73       88.82       0.000       0.000    
   9    0.000       0.000       28.12       29.79       32.36       35.57       38.97       42.28       45.41       48.53    
        51.67       55.16       59.51       65.03       71.72       79.05       86.50       94.47       102.3       107.2    
  10    0.000       0.000       31.87       33.22       35.53       38.47       41.70       44.97       48.20       51.45    
        54.83       58.61       63.14       68.61       75.01       82.00       89.23       96.46       102.8       106.5    

 HEAD WILL BE SAVED ON UNIT   51 AT END OF TIME STEP   51, STRESS PERIOD    3

 DRAWDOWN WILL BE SAVED ON UNIT   52 AT END OF TIME STEP   51, STRESS PERIOD    3
1
  VOLUMETRIC BUDGET FOR ENTIRE MODEL AT END OF TIME STEP   51, STRESS PERIOD   3
  ------------------------------------------------------------------------------

     CUMULATIVE VOLUMES      L**3       RATES FOR THIS TIME STEP      L**3/T
     ------------------                 ------------------------

           IN:                                      IN:
           ---                                      ---
             STORAGE =     2961320.2500               STORAGE =       41095.9414
       CONSTANT HEAD =           0.0000         CONSTANT HEAD =           0.0000
               WELLS =           0.0000                 WELLS =           0.0000
       RIVER LEAKAGE =           0.0000         RIVER LEAKAGE =           0.0000
            RECHARGE =     4386866.5000              RECHARGE =       20261.7871

            TOTAL IN =     7348187.0000              TOTAL IN =       61357.7266

          OUT:                                     OUT:
          ----                                     ----
             STORAGE =      790712.7500               STORAGE =           0.0000
       CONSTANT HEAD =           0.0000         CONSTANT HEAD =           0.0000
               WELLS =       77436.1641                 WELLS =         509.4487
       RIVER LEAKAGE =     6479718.0000         RIVER LEAKAGE =       60837.9258
            RECHARGE =           0.0000              RECHARGE =           0.0000

           TOTAL OUT =     7347867.0000             TOTAL OUT =       61347.3750

            IN - OUT =         320.0000              IN - OUT =          10.3516

 PERCENT DISCREPANCY =           0.00     PERCENT DISCREPANCY =           0.02






         TIME SUMMARY AT END OF TIME STEP   51 IN STRESS PERIOD    3
                    SECONDS     MINUTES      HOURS       DAYS        YEARS
                    -----------------------------------------------------------
   TIME STEP LENGTH  86400.      1440.0      24.000      1.0000     2.73785E-03
 STRESS PERIOD TIME 4.40640E+06  73440.      1224.0      51.000     0.13963    
         TOTAL TIME 1.31328E+07 2.18880E+05  3648.0      152.00     0.41615    
1

 SOLVING FOR HEAD 

    ------------------------------------------------
       NWT REQUIRED            3 OUTER ITERATIONS 
       AND A TOTAL OF          3 INNER ITERATIONS.
    ------------------------------------------------

 OUTPUT CONTROL FOR STRESS PERIOD    3   TIME STEP   52
    SAVE HEAD FOR ALL LAYERS
    SAVE DRAWDOWN FOR ALL LAYERS
    SAVE BUDGET
    PRINT HEAD FOR ALL LAYERS
    PRINT BUDGET
1
              HEAD IN LAYER   1 AT END OF TIME STEP  52 IN STRESS PERIOD    3
  ---------------------------------------------------------------------------

            1           2           3           4           5           6           7           8           9          10
           11          12          13          14          15          16          17          18          19          20
 ........................................................................................................................
   1    0.000       0.000       0.000       0.000       0.000       10.58       10.43       10.87       11.55       11.49    
        10.24       7.366       2.193     -0.4600       5.820       21.62       31.97       37.51       0.000       0.000    
   2    0.000       0.000       0.000       0.000       8.382       7.959       7.160       7.852       9.350       9.631    
        8.763       6.584       2.561     -0.5818       8.407       23.38       33.67       39.57       0.000       0.000    
   3    0.000       0.000       0.000       6.350       6.022       4.053       3.194       3.788       5.245       5.799    
        5.451       4.415       2.799     -0.8970       14.19       26.15       37.11       43.83       0.000       0.000    
   4    0.000       0.000       3.619       3.933       2.706     -0.7499     -0.4175     -0.5656     -0.8800     -0.8061    
      -0.7711     -0.5458       1.327     -0.9864       19.12       32.42       42.16       50.79       0.000       0.000    
   5    0.000       0.000      0.3857     -0.1149      -1.096     -0.3363       4.954       8.303       11.47       12.14    
        9.965     -0.3293     -0.9699      0.3549       26.13       39.71       53.42       64.49       75.42       0.000    
   6    0.000      -1.003      -1.201     -0.7588       2.019       10.78       16.12       19.77       22.39       23.93    
        23.68       21.59       22.99       28.17       41.02       53.47       67.83       72.92       77.87       0.000    
   7    0.000       9.800       11.37       13.24       16.37       21.41       25.81       29.21       31.24       34.23    
        35.85       37.10       40.09       45.64       54.92       65.17       74.21       80.26       0.000       0.000    
   8    0.000       16.06       20.37       23.00       26.02       29.82       33.59       36.94       39.80       42.71    
        45.31       48.09       51.99       57.59       65.06       73.23       80.72       88.81       0.000       0.000    
   9    0.000       0.000       28.12       29.79       32.36       35.57       38.97       42.27       45.41       48.53    
        51.67       55.16       59.51       65.03       71.72       79.05       86.50       94.47       102.3       107.2    
  10    0.000       0.000       31.87       33.22       35.53       38.47       41.70       44.97       48.20       51.44    
        54.83       58.61       63.13       68.61       75.01       82.00       89.23       96.46       102.8       106.5    

 HEAD WILL BE SAVED ON UNIT   51 AT END OF TIME STEP   52, STRESS PERIOD    3

 DRAWDOWN WILL BE SAVED ON UNIT   52 AT END OF TIME STEP   52, STRESS PERIOD    3
1
  VOLUMETRIC BUDGET FOR ENTIRE MODEL AT END OF TIME STEP   52, STRESS PERIOD   3
  ------------------------------------------------------------------------------

     CUMULATIVE VOLUMES      L**3       RATES FOR THIS TIME STEP      L**3/T
     ------------------                 ------------------------

           IN:                                      IN:
           ---                                      ---
             STORAGE =     3002069.2500               STORAGE =       40748.9062
       CONSTANT HEAD =           0.0000         CONSTANT HEAD =           0.0000
               WELLS =           0.0000                 WELLS =           0.0000
       RIVER LEAKAGE =           0.0000         RIVER LEAKAGE =           0.0000
            RECHARGE =     4407128.5000              RECHARGE =       20261.7871

            TOTAL IN =     7409198.0000              TOTAL IN =       61010.6953

          OUT:                                     OUT:
          ----                                     ----
             STORAGE =      790712.7500               STORAGE =           0.0000
       CONSTANT HEAD =           0.0000         CONSTANT HEAD =           0.0000
               WELLS =       77945.6094                 WELLS =         509.4487
       RIVER LEAKAGE =     6540209.0000         RIVER LEAKAGE =       60490.9766
            RECHARGE =           0.0000              RECHARGE =           0.0000

           TOTAL OUT =     7408867.5000             TOTAL OUT =       61000.4258

            IN - OUT =         330.5000              IN - OUT =          10.2695

 PERCENT DISCREPANCY =           0.00     PERCENT DISCREPANCY =           0.02






         TIME SUMMARY AT END OF TIME STEP   52 IN STRESS PERIOD    3
                    SECONDS     MINUTES      HOURS       DAYS        YEARS
                    -----------------------------------------------------------
   TIME STEP LENGTH  86400.      1440.0      24.000      1.0000     2.73785E-03
 STRESS PERIOD TIME 4.49280E+06  74880.      1248.0      52.000     0.14237    
         TOTAL TIME 1.32192E+07 2.20320E+05  3672.0      153.00     0.41889    
1

 SOLVING FOR HEAD 

    ------------------------------------------------
       NWT REQUIRED            3 OUTER ITERATIONS 
       AND A TOTAL OF          3 INNER ITERATIONS.
    ------------------------------------------------

 OUTPUT CONTROL FOR STRESS PERIOD    3   TIME STEP   53
    SAVE HEAD FOR ALL LAYERS
    SAVE DRAWDOWN FOR ALL LAYERS
    SAVE BUDGET
    PRINT HEAD FOR ALL LAYERS
    PRINT BUDGET
1
              HEAD IN LAYER   1 AT END OF TIME STEP  53 IN STRESS PERIOD    3
  ---------------------------------------------------------------------------

            1           2           3           4           5           6           7           8           9          10
           11          12          13          14          15          16          17          18          19          20
 ........................................................................................................................
   1    0.000       0.000       0.000       0.000       0.000       10.58       10.43       10.87       11.55       11.49    
        10.24       7.365       2.191     -0.4641       5.818       21.62       31.97       37.51       0.000       0.000    
   2    0.000       0.000       0.000       0.000       8.381       7.958       7.159       7.851       9.349       9.631    
        8.762       6.583       2.559     -0.5870       8.405       23.37       33.67       39.57       0.000       0.000    
   3    0.000       0.000       0.000       6.349       6.021       4.051       3.192       3.786       5.243       5.798    
        5.449       4.414       2.798     -0.9040       14.19       26.15       37.11       43.83       0.000       0.000    
   4    0.000       0.000       3.618       3.932       2.704     -0.7558     -0.4222     -0.5714     -0.8871     -0.8130    
      -0.7777     -0.5501       1.325     -0.9940       19.12       32.42       42.16       50.79       0.000       0.000    
   5    0.000       0.000      0.3805     -0.1172      -1.103     -0.3412       4.952       8.301       11.46       12.14    
        9.963     -0.3346     -0.9776      0.3491       26.13       39.71       53.42       64.49       75.42       0.000    
   6    0.000      -1.010      -1.209     -0.7655       2.013       10.78       16.12       19.77       22.38       23.93    
        23.68       21.59       22.99       28.17       41.02       53.47       67.83       72.92       77.87       0.000    
   7    0.000       9.798       11.37       13.24       16.37       21.41       25.81       29.21       31.24       34.23    
        35.84       37.09       40.09       45.64       54.92       65.17       74.21       80.26       0.000       0.000    
   8    0.000       16.06       20.36       23.00       26.02       29.82       33.59       36.94       39.80       42.71    
        45.31       48.09       51.99       57.59       65.06       73.23       80.72       88.81       0.000       0.000    
   9    0.000       0.000       28.12       29.79       32.36       35.56       38.97       42.27       45.41       48.53    
        51.67       55.16       59.51       65.03       71.72       79.05       86.50       94.47       102.3       107.2    
  10    0.000       0.000       31.87       33.22       35.53       38.47       41.70       44.97       48.20       51.44    
        54.83       58.61       63.13       68.61       75.01       82.00       89.22       96.46       102.8       106.5    

 HEAD WILL BE SAVED ON UNIT   51 AT END OF TIME STEP   53, STRESS PERIOD    3

 DRAWDOWN WILL BE SAVED ON UNIT   52 AT END OF TIME STEP   53, STRESS PERIOD    3
1
  VOLUMETRIC BUDGET FOR ENTIRE MODEL AT END OF TIME STEP   53, STRESS PERIOD   3
  ------------------------------------------------------------------------------

     CUMULATIVE VOLUMES      L**3       RATES FOR THIS TIME STEP      L**3/T
     ------------------                 ------------------------

           IN:                                      IN:
           ---                                      ---
             STORAGE =     3042475.2500               STORAGE =       40405.9062
       CONSTANT HEAD =           0.0000         CONSTANT HEAD =           0.0000
               WELLS =           0.0000                 WELLS =           0.0000
       RIVER LEAKAGE =           0.0000         RIVER LEAKAGE =           0.0000
            RECHARGE =     4427390.5000              RECHARGE =       20261.7871

            TOTAL IN =     7469866.0000              TOTAL IN =       60667.6953

          OUT:                                     OUT:
          ----                                     ----
             STORAGE =      790712.7500               STORAGE =           0.0000
       CONSTANT HEAD =           0.0000         CONSTANT HEAD =           0.0000
               WELLS =       78455.0547                 WELLS =         509.4487
       RIVER LEAKAGE =     6600357.0000         RIVER LEAKAGE =       60148.0625
            RECHARGE =           0.0000              RECHARGE =           0.0000

           TOTAL OUT =     7469525.0000             TOTAL OUT =       60657.5117

            IN - OUT =         341.0000              IN - OUT =          10.1836

 PERCENT DISCREPANCY =           0.00     PERCENT DISCREPANCY =           0.02






         TIME SUMMARY AT END OF TIME STEP   53 IN STRESS PERIOD    3
                    SECONDS     MINUTES      HOURS       DAYS        YEARS
                    -----------------------------------------------------------
   TIME STEP LENGTH  86400.      1440.0      24.000      1.0000     2.73785E-03
 STRESS PERIOD TIME 4.57920E+06  76320.      1272.0      53.000     0.14511    
         TOTAL TIME 1.33056E+07 2.21760E+05  3696.0      154.00     0.42163    
1

 SOLVING FOR HEAD 

    ------------------------------------------------
       NWT REQUIRED            3 OUTER ITERATIONS 
       AND A TOTAL OF          3 INNER ITERATIONS.
    ------------------------------------------------

 OUTPUT CONTROL FOR STRESS PERIOD    3   TIME STEP   54
    SAVE HEAD FOR ALL LAYERS
    SAVE DRAWDOWN FOR ALL LAYERS
    SAVE BUDGET
    PRINT HEAD FOR ALL LAYERS
    PRINT BUDGET
1
              HEAD IN LAYER   1 AT END OF TIME STEP  54 IN STRESS PERIOD    3
  ---------------------------------------------------------------------------

            1           2           3           4           5           6           7           8           9          10
           11          12          13          14          15          16          17          18          19          20
 ........................................................................................................................
   1    0.000       0.000       0.000       0.000       0.000       10.58       10.43       10.87       11.55       11.48    
        10.24       7.364       2.189     -0.4682       5.816       21.62       31.97       37.51       0.000       0.000    
   2    0.000       0.000       0.000       0.000       8.381       7.958       7.159       7.850       9.349       9.630    
        8.761       6.582       2.557     -0.5922       8.403       23.37       33.67       39.57       0.000       0.000    
   3    0.000       0.000       0.000       6.349       6.020       4.050       3.190       3.784       5.242       5.796    
        5.448       4.413       2.796     -0.9109       14.19       26.15       37.11       43.83       0.000       0.000    
   4    0.000       0.000       3.617       3.931       2.702     -0.7616     -0.4268     -0.5772     -0.8941     -0.8198    
      -0.7842     -0.5545       1.322      -1.001       19.11       32.42       42.16       50.79       0.000       0.000    
   5    0.000       0.000      0.3753     -0.1194      -1.111     -0.3460       4.950       8.299       11.46       12.14    
        9.962     -0.3399     -0.9851      0.3434       26.13       39.71       53.42       64.49       75.42       0.000    
   6    0.000      -1.018      -1.217     -0.7721       2.007       10.78       16.11       19.77       22.38       23.93    
        23.67       21.59       22.99       28.17       41.02       53.47       67.83       72.91       77.87       0.000    
   7    0.000       9.796       11.37       13.24       16.37       21.41       25.81       29.21       31.24       34.23    
        35.84       37.09       40.09       45.64       54.92       65.17       74.21       80.26       0.000       0.000    
   8    0.000       16.06       20.36       23.00       26.02       29.82       33.59       36.94       39.79       42.71    
        45.31       48.09       51.99       57.59       65.06       73.23       80.72       88.81       0.000       0.000    
   9    0.000       0.000       28.12       29.79       32.36       35.56       38.97       42.27       45.41       48.53    
        51.67       55.16       59.51       65.03       71.72       79.05       86.50       94.47       102.3       107.2    
  10    0.000       0.000       31.87       33.22       35.53       38.47       41.70       44.97       48.20       51.44    
        54.83       58.61       63.13       68.61       75.01       82.00       89.22       96.46       102.8       106.5    

 HEAD WILL BE SAVED ON UNIT   51 AT END OF TIME STEP   54, STRESS PERIOD    3

 DRAWDOWN WILL BE SAVED ON UNIT   52 AT END OF TIME STEP   54, STRESS PERIOD    3
1
  VOLUMETRIC BUDGET FOR ENTIRE MODEL AT END OF TIME STEP   54, STRESS PERIOD   3
  ------------------------------------------------------------------------------

     CUMULATIVE VOLUMES      L**3       RATES FOR THIS TIME STEP      L**3/T
     ------------------                 ------------------------

           IN:                                      IN:
           ---                                      ---
             STORAGE =     3082542.2500               STORAGE =       40066.8828
       CONSTANT HEAD =           0.0000         CONSTANT HEAD =           0.0000
               WELLS =           0.0000                 WELLS =           0.0000
       RIVER LEAKAGE =           0.0000         RIVER LEAKAGE =           0.0000
            RECHARGE =     4447652.5000              RECHARGE =       20261.7871

            TOTAL IN =     7530195.0000              TOTAL IN =       60328.6719

          OUT:                                     OUT:
          ----                                     ----
             STORAGE =      790712.7500               STORAGE =           0.0000
       CONSTANT HEAD =           0.0000         CONSTANT HEAD =           0.0000
               WELLS =       78964.5000                 WELLS =         509.4487
       RIVER LEAKAGE =     6660166.0000         RIVER LEAKAGE =       59809.1250
            RECHARGE =           0.0000              RECHARGE =           0.0000

           TOTAL OUT =     7529843.0000             TOTAL OUT =       60318.5742

            IN - OUT =         352.0000              IN - OUT =          10.0977

 PERCENT DISCREPANCY =           0.00     PERCENT DISCREPANCY =           0.02






         TIME SUMMARY AT END OF TIME STEP   54 IN STRESS PERIOD    3
                    SECONDS     MINUTES      HOURS       DAYS        YEARS
                    -----------------------------------------------------------
   TIME STEP LENGTH  86400.      1440.0      24.000      1.0000     2.73785E-03
 STRESS PERIOD TIME 4.66560E+06  77760.      1296.0      54.000     0.14784    
         TOTAL TIME 1.33920E+07 2.23200E+05  3720.0      155.00     0.42437    
1

 SOLVING FOR HEAD 

    ------------------------------------------------
       NWT REQUIRED            3 OUTER ITERATIONS 
       AND A TOTAL OF          3 INNER ITERATIONS.
    ------------------------------------------------

 OUTPUT CONTROL FOR STRESS PERIOD    3   TIME STEP   55
    SAVE HEAD FOR ALL LAYERS
    SAVE DRAWDOWN FOR ALL LAYERS
    SAVE BUDGET
    PRINT HEAD FOR ALL LAYERS
    PRINT BUDGET
1
              HEAD IN LAYER   1 AT END OF TIME STEP  55 IN STRESS PERIOD    3
  ---------------------------------------------------------------------------

            1           2           3           4           5           6           7           8           9          10
           11          12          13          14          15          16          17          18          19          20
 ........................................................................................................................
   1    0.000       0.000       0.000       0.000       0.000       10.58       10.43       10.87       11.55       11.48    
        10.24       7.364       2.187     -0.4723       5.814       21.62       31.97       37.51       0.000       0.000    
   2    0.000       0.000       0.000       0.000       8.380       7.957       7.158       7.849       9.348       9.629    
        8.761       6.581       2.555     -0.5974       8.401       23.37       33.67       39.57       0.000       0.000    
   3    0.000       0.000       0.000       6.348       6.019       4.048       3.188       3.782       5.240       5.795    
        5.447       4.412       2.795     -0.9178       14.19       26.15       37.11       43.83       0.000       0.000    
   4    0.000       0.000       3.616       3.930       2.699     -0.7674     -0.4315     -0.5829     -0.9010     -0.8266    
      -0.7906     -0.5589       1.319      -1.009       19.11       32.42       42.16       50.79       0.000       0.000    
   5    0.000       0.000      0.3701     -0.1217      -1.118     -0.3508       4.948       8.298       11.46       12.14    
        9.960     -0.3451     -0.9926      0.3379       26.13       39.71       53.42       64.49       75.42       0.000    
   6    0.000      -1.025      -1.224     -0.7787       2.000       10.78       16.11       19.77       22.38       23.93    
        23.67       21.59       22.99       28.16       41.02       53.47       67.83       72.91       77.87       0.000    
   7    0.000       9.795       11.37       13.23       16.37       21.41       25.81       29.21       31.24       34.23    
        35.84       37.09       40.09       45.64       54.92       65.17       74.21       80.26       0.000       0.000    
   8    0.000       16.06       20.36       23.00       26.02       29.82       33.59       36.94       39.79       42.71    
        45.31       48.09       51.99       57.59       65.06       73.23       80.72       88.81       0.000       0.000    
   9    0.000       0.000       28.12       29.79       32.36       35.56       38.97       42.27       45.41       48.52    
        51.67       55.16       59.51       65.03       71.72       79.05       86.50       94.47       102.3       107.2    
  10    0.000       0.000       31.87       33.22       35.53       38.47       41.70       44.97       48.20       51.44    
        54.83       58.61       63.13       68.61       75.01       82.00       89.22       96.46       102.8       106.5    

 HEAD WILL BE SAVED ON UNIT   51 AT END OF TIME STEP   55, STRESS PERIOD    3

 DRAWDOWN WILL BE SAVED ON UNIT   52 AT END OF TIME STEP   55, STRESS PERIOD    3
1
  VOLUMETRIC BUDGET FOR ENTIRE MODEL AT END OF TIME STEP   55, STRESS PERIOD   3
  ------------------------------------------------------------------------------

     CUMULATIVE VOLUMES      L**3       RATES FOR THIS TIME STEP      L**3/T
     ------------------                 ------------------------

           IN:                                      IN:
           ---                                      ---
             STORAGE =     3122274.0000               STORAGE =       39731.7852
       CONSTANT HEAD =           0.0000         CONSTANT HEAD =           0.0000
               WELLS =           0.0000                 WELLS =           0.0000
       RIVER LEAKAGE =           0.0000         RIVER LEAKAGE =           0.0000
            RECHARGE =     4467914.5000              RECHARGE =       20261.7871

            TOTAL IN =     7590188.5000              TOTAL IN =       59993.5703

          OUT:                                     OUT:
          ----                                     ----
             STORAGE =      790712.7500               STORAGE =           0.0000
       CONSTANT HEAD =           0.0000         CONSTANT HEAD =           0.0000
               WELLS =       79473.9453                 WELLS =         509.4487
       RIVER LEAKAGE =     6719640.0000         RIVER LEAKAGE =       59474.1133
            RECHARGE =           0.0000              RECHARGE =           0.0000

           TOTAL OUT =     7589826.5000             TOTAL OUT =       59983.5625

            IN - OUT =         362.0000              IN - OUT =          10.0078

 PERCENT DISCREPANCY =           0.00     PERCENT DISCREPANCY =           0.02






         TIME SUMMARY AT END OF TIME STEP   55 IN STRESS PERIOD    3
                    SECONDS     MINUTES      HOURS       DAYS        YEARS
                    -----------------------------------------------------------
   TIME STEP LENGTH  86400.      1440.0      24.000      1.0000     2.73785E-03
 STRESS PERIOD TIME 4.75200E+06  79200.      1320.0      55.000     0.15058    
         TOTAL TIME 1.34784E+07 2.24640E+05  3744.0      156.00     0.42710    
1

 SOLVING FOR HEAD 

    ------------------------------------------------
       NWT REQUIRED            3 OUTER ITERATIONS 
       AND A TOTAL OF          3 INNER ITERATIONS.
    ------------------------------------------------

 OUTPUT CONTROL FOR STRESS PERIOD    3   TIME STEP   56
    SAVE HEAD FOR ALL LAYERS
    SAVE DRAWDOWN FOR ALL LAYERS
    SAVE BUDGET
    PRINT HEAD FOR ALL LAYERS
    PRINT BUDGET
1
              HEAD IN LAYER   1 AT END OF TIME STEP  56 IN STRESS PERIOD    3
  ---------------------------------------------------------------------------

            1           2           3           4           5           6           7           8           9          10
           11          12          13          14          15          16          17          18          19          20
 ........................................................................................................................
   1    0.000       0.000       0.000       0.000       0.000       10.57       10.43       10.87       11.55       11.48    
        10.24       7.363       2.185     -0.4764       5.812       21.62       31.97       37.51       0.000       0.000    
   2    0.000       0.000       0.000       0.000       8.380       7.956       7.157       7.849       9.347       9.629    
        8.760       6.581       2.554     -0.6025       8.400       23.37       33.67       39.57       0.000       0.000    
   3    0.000       0.000       0.000       6.347       6.019       4.046       3.186       3.780       5.239       5.794    
        5.445       4.410       2.793     -0.9246       14.18       26.15       37.11       43.83       0.000       0.000    
   4    0.000       0.000       3.615       3.929       2.697     -0.7731     -0.4361     -0.5886     -0.9078     -0.8333    
      -0.7970     -0.5632       1.317      -1.016       19.11       32.42       42.16       50.79       0.000       0.000    
   5    0.000       0.000      0.3650     -0.1239      -1.125     -0.3556       4.946       8.296       11.46       12.13    
        9.958     -0.3503     -0.9999      0.3326       26.13       39.71       53.42       64.49       75.41       0.000    
   6    0.000      -1.032      -1.231     -0.7852       1.994       10.78       16.11       19.77       22.38       23.93    
        23.67       21.58       22.99       28.16       41.02       53.47       67.83       72.91       77.87       0.000    
   7    0.000       9.793       11.37       13.23       16.37       21.41       25.81       29.21       31.24       34.23    
        35.84       37.09       40.09       45.63       54.92       65.17       74.21       80.26       0.000       0.000    
   8    0.000       16.06       20.36       23.00       26.02       29.82       33.59       36.94       39.79       42.71    
        45.31       48.09       51.99       57.59       65.06       73.23       80.72       88.81       0.000       0.000    
   9    0.000       0.000       28.12       29.79       32.36       35.56       38.96       42.27       45.41       48.52    
        51.67       55.16       59.51       65.03       71.72       79.05       86.50       94.47       102.3       107.2    
  10    0.000       0.000       31.87       33.22       35.53       38.47       41.70       44.97       48.20       51.44    
        54.83       58.61       63.13       68.61       75.01       82.00       89.22       96.46       102.8       106.5    

 HEAD WILL BE SAVED ON UNIT   51 AT END OF TIME STEP   56, STRESS PERIOD    3

 DRAWDOWN WILL BE SAVED ON UNIT   52 AT END OF TIME STEP   56, STRESS PERIOD    3
1
  VOLUMETRIC BUDGET FOR ENTIRE MODEL AT END OF TIME STEP   56, STRESS PERIOD   3
  ------------------------------------------------------------------------------

     CUMULATIVE VOLUMES      L**3       RATES FOR THIS TIME STEP      L**3/T
     ------------------                 ------------------------

           IN:                                      IN:
           ---                                      ---
             STORAGE =     3161674.5000               STORAGE =       39400.5547
       CONSTANT HEAD =           0.0000         CONSTANT HEAD =           0.0000
               WELLS =           0.0000                 WELLS =           0.0000
       RIVER LEAKAGE =           0.0000         RIVER LEAKAGE =           0.0000
            RECHARGE =     4488176.5000              RECHARGE =       20261.7871

            TOTAL IN =     7649851.0000              TOTAL IN =       59662.3438

          OUT:                                     OUT:
          ----                                     ----
             STORAGE =      790712.7500               STORAGE =           0.0000
       CONSTANT HEAD =           0.0000         CONSTANT HEAD =           0.0000
               WELLS =       79983.3906                 WELLS =         509.4487
       RIVER LEAKAGE =     6778783.0000         RIVER LEAKAGE =       59142.9688
            RECHARGE =           0.0000              RECHARGE =           0.0000

           TOTAL OUT =     7649479.0000             TOTAL OUT =       59652.4180

            IN - OUT =         372.0000              IN - OUT =           9.9258

 PERCENT DISCREPANCY =           0.00     PERCENT DISCREPANCY =           0.02






         TIME SUMMARY AT END OF TIME STEP   56 IN STRESS PERIOD    3
                    SECONDS     MINUTES      HOURS       DAYS        YEARS
                    -----------------------------------------------------------
   TIME STEP LENGTH  86400.      1440.0      24.000      1.0000     2.73785E-03
 STRESS PERIOD TIME 4.83840E+06  80640.      1344.0      56.000     0.15332    
         TOTAL TIME 1.35648E+07 2.26080E+05  3768.0      157.00     0.42984    
1

 SOLVING FOR HEAD 

    ------------------------------------------------
       NWT REQUIRED            3 OUTER ITERATIONS 
       AND A TOTAL OF          3 INNER ITERATIONS.
    ------------------------------------------------

 OUTPUT CONTROL FOR STRESS PERIOD    3   TIME STEP   57
    SAVE HEAD FOR ALL LAYERS
    SAVE DRAWDOWN FOR ALL LAYERS
    SAVE BUDGET
    PRINT HEAD FOR ALL LAYERS
    PRINT BUDGET
1
              HEAD IN LAYER   1 AT END OF TIME STEP  57 IN STRESS PERIOD    3
  ---------------------------------------------------------------------------

            1           2           3           4           5           6           7           8           9          10
           11          12          13          14          15          16          17          18          19          20
 ........................................................................................................................
   1    0.000       0.000       0.000       0.000       0.000       10.57       10.43       10.86       11.55       11.48    
        10.24       7.362       2.183     -0.4804       5.811       21.62       31.97       37.51       0.000       0.000    
   2    0.000       0.000       0.000       0.000       8.379       7.955       7.156       7.848       9.347       9.628    
        8.759       6.580       2.552     -0.6076       8.398       23.37       33.67       39.57       0.000       0.000    
   3    0.000       0.000       0.000       6.347       6.018       4.044       3.183       3.778       5.237       5.792    
        5.444       4.409       2.792     -0.9313       14.18       26.14       37.11       43.83       0.000       0.000    
   4    0.000       0.000       3.614       3.928       2.695     -0.7788     -0.4407     -0.5942     -0.9146     -0.8399    
      -0.8034     -0.5675       1.314      -1.023       19.11       32.42       42.16       50.79       0.000       0.000    
   5    0.000       0.000      0.3599     -0.1262      -1.132     -0.3604       4.944       8.294       11.46       12.13    
        9.956     -0.3554      -1.007      0.3275       26.12       39.71       53.42       64.49       75.41       0.000    
   6    0.000      -1.039      -1.239     -0.7916       1.988       10.77       16.11       19.77       22.38       23.93    
        23.67       21.58       22.99       28.16       41.02       53.47       67.83       72.91       77.87       0.000    
   7    0.000       9.792       11.37       13.23       16.37       21.41       25.81       29.21       31.24       34.23    
        35.84       37.09       40.09       45.63       54.92       65.16       74.21       80.26       0.000       0.000    
   8    0.000       16.05       20.36       23.00       26.02       29.82       33.59       36.94       39.79       42.71    
        45.31       48.09       51.99       57.59       65.06       73.23       80.72       88.81       0.000       0.000    
   9    0.000       0.000       28.12       29.79       32.36       35.56       38.96       42.27       45.41       48.52    
        51.67       55.16       59.51       65.03       71.72       79.05       86.50       94.46       102.3       107.2    
  10    0.000       0.000       31.87       33.22       35.53       38.47       41.70       44.97       48.20       51.44    
        54.82       58.61       63.13       68.61       75.00       82.00       89.22       96.46       102.8       106.5    

 HEAD WILL BE SAVED ON UNIT   51 AT END OF TIME STEP   57, STRESS PERIOD    3

 DRAWDOWN WILL BE SAVED ON UNIT   52 AT END OF TIME STEP   57, STRESS PERIOD    3
1
  VOLUMETRIC BUDGET FOR ENTIRE MODEL AT END OF TIME STEP   57, STRESS PERIOD   3
  ------------------------------------------------------------------------------

     CUMULATIVE VOLUMES      L**3       RATES FOR THIS TIME STEP      L**3/T
     ------------------                 ------------------------

           IN:                                      IN:
           ---                                      ---
             STORAGE =     3200747.7500               STORAGE =       39073.1445
       CONSTANT HEAD =           0.0000         CONSTANT HEAD =           0.0000
               WELLS =           0.0000                 WELLS =           0.0000
       RIVER LEAKAGE =           0.0000         RIVER LEAKAGE =           0.0000
            RECHARGE =     4508438.5000              RECHARGE =       20261.7871

            TOTAL IN =     7709186.0000              TOTAL IN =       59334.9297

          OUT:                                     OUT:
          ----                                     ----
             STORAGE =      790712.7500               STORAGE =           0.0000
       CONSTANT HEAD =           0.0000         CONSTANT HEAD =           0.0000
               WELLS =       80492.8359                 WELLS =         509.4487
       RIVER LEAKAGE =     6837598.5000         RIVER LEAKAGE =       58815.6367
            RECHARGE =           0.0000              RECHARGE =           0.0000

           TOTAL OUT =     7708804.0000             TOTAL OUT =       59325.0859

            IN - OUT =         382.0000              IN - OUT =           9.8438

 PERCENT DISCREPANCY =           0.00     PERCENT DISCREPANCY =           0.02






         TIME SUMMARY AT END OF TIME STEP   57 IN STRESS PERIOD    3
                    SECONDS     MINUTES      HOURS       DAYS        YEARS
                    -----------------------------------------------------------
   TIME STEP LENGTH  86400.      1440.0      24.000      1.0000     2.73785E-03
 STRESS PERIOD TIME 4.92480E+06  82080.      1368.0      57.000     0.15606    
         TOTAL TIME 1.36512E+07 2.27520E+05  3792.0      158.00     0.43258    
1

 SOLVING FOR HEAD 

    ------------------------------------------------
       NWT REQUIRED            3 OUTER ITERATIONS 
       AND A TOTAL OF          3 INNER ITERATIONS.
    ------------------------------------------------

 OUTPUT CONTROL FOR STRESS PERIOD    3   TIME STEP   58
    SAVE HEAD FOR ALL LAYERS
    SAVE DRAWDOWN FOR ALL LAYERS
    SAVE BUDGET
    PRINT HEAD FOR ALL LAYERS
    PRINT BUDGET
1
              HEAD IN LAYER   1 AT END OF TIME STEP  58 IN STRESS PERIOD    3
  ---------------------------------------------------------------------------

            1           2           3           4           5           6           7           8           9          10
           11          12          13          14          15          16          17          18          19          20
 ........................................................................................................................
   1    0.000       0.000       0.000       0.000       0.000       10.57       10.43       10.86       11.55       11.48    
        10.24       7.362       2.181     -0.4844       5.809       21.62       31.97       37.51       0.000       0.000    
   2    0.000       0.000       0.000       0.000       8.378       7.955       7.155       7.847       9.346       9.627    
        8.759       6.579       2.550     -0.6127       8.396       23.37       33.67       39.57       0.000       0.000    
   3    0.000       0.000       0.000       6.346       6.017       4.042       3.181       3.776       5.236       5.791    
        5.443       4.408       2.790     -0.9379       14.18       26.14       37.11       43.83       0.000       0.000    
   4    0.000       0.000       3.613       3.927       2.693     -0.7845     -0.4452     -0.5998     -0.9213     -0.8464    
      -0.8096     -0.5718       1.311      -1.030       19.11       32.42       42.16       50.79       0.000       0.000    
   5    0.000       0.000      0.3549     -0.1284      -1.139     -0.3651       4.942       8.293       11.46       12.13    
        9.954     -0.3606      -1.014      0.3226       26.12       39.71       53.42       64.49       75.41       0.000    
   6    0.000      -1.045      -1.246     -0.7980       1.981       10.77       16.11       19.77       22.38       23.93    
        23.67       21.58       22.98       28.16       41.02       53.47       67.83       72.91       77.87       0.000    
   7    0.000       9.790       11.36       13.23       16.36       21.41       25.81       29.21       31.24       34.23    
        35.84       37.09       40.08       45.63       54.92       65.16       74.21       80.26       0.000       0.000    
   8    0.000       16.05       20.36       23.00       26.02       29.81       33.59       36.94       39.79       42.71    
        45.31       48.09       51.99       57.59       65.05       73.23       80.72       88.81       0.000       0.000    
   9    0.000       0.000       28.12       29.79       32.36       35.56       38.96       42.27       45.40       48.52    
        51.67       55.16       59.51       65.03       71.72       79.05       86.50       94.46       102.3       107.2    
  10    0.000       0.000       31.87       33.22       35.53       38.47       41.70       44.97       48.20       51.44    
        54.82       58.61       63.13       68.61       75.00       82.00       89.22       96.46       102.8       106.5    

 HEAD WILL BE SAVED ON UNIT   51 AT END OF TIME STEP   58, STRESS PERIOD    3

 DRAWDOWN WILL BE SAVED ON UNIT   52 AT END OF TIME STEP   58, STRESS PERIOD    3
1
  VOLUMETRIC BUDGET FOR ENTIRE MODEL AT END OF TIME STEP   58, STRESS PERIOD   3
  ------------------------------------------------------------------------------

     CUMULATIVE VOLUMES      L**3       RATES FOR THIS TIME STEP      L**3/T
     ------------------                 ------------------------

           IN:                                      IN:
           ---                                      ---
             STORAGE =     3239497.2500               STORAGE =       38749.4922
       CONSTANT HEAD =           0.0000         CONSTANT HEAD =           0.0000
               WELLS =           0.0000                 WELLS =           0.0000
       RIVER LEAKAGE =           0.0000         RIVER LEAKAGE =           0.0000
            RECHARGE =     4528700.5000              RECHARGE =       20261.7871

            TOTAL IN =     7768198.0000              TOTAL IN =       59011.2812

          OUT:                                     OUT:
          ----                                     ----
             STORAGE =      790712.7500               STORAGE =           0.0000
       CONSTANT HEAD =           0.0000         CONSTANT HEAD =           0.0000
               WELLS =       81002.2812                 WELLS =         509.4487
       RIVER LEAKAGE =     6896090.5000         RIVER LEAKAGE =       58492.0703
            RECHARGE =           0.0000              RECHARGE =           0.0000

           TOTAL OUT =     7767805.5000             TOTAL OUT =       59001.5195

            IN - OUT =         392.5000              IN - OUT =           9.7617

 PERCENT DISCREPANCY =           0.01     PERCENT DISCREPANCY =           0.02






         TIME SUMMARY AT END OF TIME STEP   58 IN STRESS PERIOD    3
                    SECONDS     MINUTES      HOURS       DAYS        YEARS
                    -----------------------------------------------------------
   TIME STEP LENGTH  86400.      1440.0      24.000      1.0000     2.73785E-03
 STRESS PERIOD TIME 5.01120E+06  83520.      1392.0      58.000     0.15880    
         TOTAL TIME 1.37376E+07 2.28960E+05  3816.0      159.00     0.43532    
1

 SOLVING FOR HEAD 

    ------------------------------------------------
       NWT REQUIRED            3 OUTER ITERATIONS 
       AND A TOTAL OF          3 INNER ITERATIONS.
    ------------------------------------------------

 OUTPUT CONTROL FOR STRESS PERIOD    3   TIME STEP   59
    SAVE HEAD FOR ALL LAYERS
    SAVE DRAWDOWN FOR ALL LAYERS
    SAVE BUDGET
    PRINT HEAD FOR ALL LAYERS
    PRINT BUDGET
1
              HEAD IN LAYER   1 AT END OF TIME STEP  59 IN STRESS PERIOD    3
  ---------------------------------------------------------------------------

            1           2           3           4           5           6           7           8           9          10
           11          12          13          14          15          16          17          18          19          20
 ........................................................................................................................
   1    0.000       0.000       0.000       0.000       0.000       10.57       10.43       10.86       11.55       11.48    
        10.24       7.361       2.179     -0.4885       5.807       21.62       31.97       37.51       0.000       0.000    
   2    0.000       0.000       0.000       0.000       8.378       7.954       7.154       7.846       9.345       9.627    
        8.758       6.579       2.548     -0.6177       8.394       23.37       33.67       39.57       0.000       0.000    
   3    0.000       0.000       0.000       6.345       6.016       4.040       3.179       3.774       5.234       5.789    
        5.441       4.407       2.789     -0.9445       14.18       26.14       37.11       43.83       0.000       0.000    
   4    0.000       0.000       3.611       3.926       2.690     -0.7901     -0.4498     -0.6053     -0.9279     -0.8529    
      -0.8158     -0.5761       1.309      -1.037       19.11       32.42       42.16       50.79       0.000       0.000    
   5    0.000       0.000      0.3498     -0.1307      -1.145     -0.3698       4.939       8.291       11.46       12.13    
        9.952     -0.3656      -1.021      0.3178       26.12       39.71       53.42       64.49       75.41       0.000    
   6    0.000      -1.052      -1.253     -0.8043       1.975       10.77       16.11       19.77       22.38       23.93    
        23.67       21.58       22.98       28.16       41.02       53.47       67.83       72.91       77.87       0.000    
   7    0.000       9.789       11.36       13.23       16.36       21.40       25.81       29.21       31.24       34.23    
        35.84       37.09       40.08       45.63       54.92       65.16       74.21       80.26       0.000       0.000    
   8    0.000       16.05       20.36       23.00       26.02       29.81       33.58       36.94       39.79       42.71    
        45.31       48.09       51.99       57.59       65.05       73.23       80.72       88.81       0.000       0.000    
   9    0.000       0.000       28.12       29.79       32.36       35.56       38.96       42.27       45.40       48.52    
        51.66       55.16       59.50       65.03       71.72       79.05       86.49       94.46       102.3       107.2    
  10    0.000       0.000       31.87       33.22       35.53       38.47       41.70       44.97       48.19       51.44    
        54.82       58.61       63.13       68.61       75.00       82.00       89.22       96.46       102.8       106.5    

 HEAD WILL BE SAVED ON UNIT   51 AT END OF TIME STEP   59, STRESS PERIOD    3

 DRAWDOWN WILL BE SAVED ON UNIT   52 AT END OF TIME STEP   59, STRESS PERIOD    3
1
  VOLUMETRIC BUDGET FOR ENTIRE MODEL AT END OF TIME STEP   59, STRESS PERIOD   3
  ------------------------------------------------------------------------------

     CUMULATIVE VOLUMES      L**3       RATES FOR THIS TIME STEP      L**3/T
     ------------------                 ------------------------

           IN:                                      IN:
           ---                                      ---
             STORAGE =     3277926.7500               STORAGE =       38429.5547
       CONSTANT HEAD =           0.0000         CONSTANT HEAD =           0.0000
               WELLS =           0.0000                 WELLS =           0.0000
       RIVER LEAKAGE =           0.0000         RIVER LEAKAGE =           0.0000
            RECHARGE =     4548962.5000              RECHARGE =       20261.7871

            TOTAL IN =     7826889.0000              TOTAL IN =       58691.3438

          OUT:                                     OUT:
          ----                                     ----
             STORAGE =      790712.7500               STORAGE =           0.0000
       CONSTANT HEAD =           0.0000         CONSTANT HEAD =           0.0000
               WELLS =       81511.7266                 WELLS =         509.4487
       RIVER LEAKAGE =     6954262.5000         RIVER LEAKAGE =       58172.2148
            RECHARGE =           0.0000              RECHARGE =           0.0000

           TOTAL OUT =     7826487.0000             TOTAL OUT =       58681.6641

            IN - OUT =         402.0000              IN - OUT =           9.6797

 PERCENT DISCREPANCY =           0.01     PERCENT DISCREPANCY =           0.02






         TIME SUMMARY AT END OF TIME STEP   59 IN STRESS PERIOD    3
                    SECONDS     MINUTES      HOURS       DAYS        YEARS
                    -----------------------------------------------------------
   TIME STEP LENGTH  86400.      1440.0      24.000      1.0000     2.73785E-03
 STRESS PERIOD TIME 5.09760E+06  84960.      1416.0      59.000     0.16153    
         TOTAL TIME 1.38240E+07 2.30400E+05  3840.0      160.00     0.43806    
1

 SOLVING FOR HEAD 

    ------------------------------------------------
       NWT REQUIRED            3 OUTER ITERATIONS 
       AND A TOTAL OF          3 INNER ITERATIONS.
    ------------------------------------------------

 OUTPUT CONTROL FOR STRESS PERIOD    3   TIME STEP   60
    SAVE HEAD FOR ALL LAYERS
    SAVE DRAWDOWN FOR ALL LAYERS
    SAVE BUDGET
    PRINT HEAD FOR ALL LAYERS
    PRINT BUDGET
1
              HEAD IN LAYER   1 AT END OF TIME STEP  60 IN STRESS PERIOD    3
  ---------------------------------------------------------------------------

            1           2           3           4           5           6           7           8           9          10
           11          12          13          14          15          16          17          18          19          20
 ........................................................................................................................
   1    0.000       0.000       0.000       0.000       0.000       10.57       10.43       10.86       11.55       11.48    
        10.23       7.360       2.177     -0.4924       5.805       21.61       31.97       37.51       0.000       0.000    
   2    0.000       0.000       0.000       0.000       8.377       7.953       7.154       7.845       9.345       9.626    
        8.757       6.578       2.546     -0.6227       8.392       23.37       33.67       39.57       0.000       0.000    
   3    0.000       0.000       0.000       6.345       6.015       4.039       3.177       3.772       5.232       5.788    
        5.440       4.406       2.787     -0.9510       14.18       26.14       37.11       43.83       0.000       0.000    
   4    0.000       0.000       3.610       3.925       2.688     -0.7956     -0.4543     -0.6108     -0.9344     -0.8593    
      -0.8220     -0.5803       1.306      -1.044       19.11       32.42       42.16       50.79       0.000       0.000    
   5    0.000       0.000      0.3448     -0.1329      -1.152     -0.3745       4.937       8.289       11.45       12.13    
        9.950     -0.3707      -1.028      0.3132       26.12       39.71       53.42       64.49       75.41       0.000    
   6    0.000      -1.059      -1.260     -0.8105       1.969       10.77       16.11       19.77       22.38       23.93    
        23.67       21.58       22.98       28.15       41.01       53.47       67.83       72.91       77.87       0.000    
   7    0.000       9.787       11.36       13.23       16.36       21.40       25.81       29.21       31.23       34.23    
        35.84       37.09       40.08       45.63       54.91       65.16       74.21       80.26       0.000       0.000    
   8    0.000       16.05       20.36       22.99       26.02       29.81       33.58       36.94       39.79       42.71    
        45.31       48.09       51.99       57.59       65.05       73.23       80.72       88.81       0.000       0.000    
   9    0.000       0.000       28.12       29.79       32.36       35.56       38.96       42.27       45.40       48.52    
        51.66       55.16       59.50       65.03       71.72       79.05       86.49       94.46       102.3       107.2    
  10    0.000       0.000       31.87       33.22       35.53       38.47       41.70       44.97       48.19       51.44    
        54.82       58.61       63.13       68.61       75.00       82.00       89.22       96.46       102.8       106.5    

 HEAD WILL BE SAVED ON UNIT   51 AT END OF TIME STEP   60, STRESS PERIOD    3

 DRAWDOWN WILL BE SAVED ON UNIT   52 AT END OF TIME STEP   60, STRESS PERIOD    3
1
  VOLUMETRIC BUDGET FOR ENTIRE MODEL AT END OF TIME STEP   60, STRESS PERIOD   3
  ------------------------------------------------------------------------------

     CUMULATIVE VOLUMES      L**3       RATES FOR THIS TIME STEP      L**3/T
     ------------------                 ------------------------

           IN:                                      IN:
           ---                                      ---
             STORAGE =     3316040.0000               STORAGE =       38113.2773
       CONSTANT HEAD =           0.0000         CONSTANT HEAD =           0.0000
               WELLS =           0.0000                 WELLS =           0.0000
       RIVER LEAKAGE =           0.0000         RIVER LEAKAGE =           0.0000
            RECHARGE =     4569224.5000              RECHARGE =       20261.7871

            TOTAL IN =     7885264.5000              TOTAL IN =       58375.0625

          OUT:                                     OUT:
          ----                                     ----
             STORAGE =      790712.7500               STORAGE =           0.0000
       CONSTANT HEAD =           0.0000         CONSTANT HEAD =           0.0000
               WELLS =       82021.1719                 WELLS =         509.4487
       RIVER LEAKAGE =     7012118.5000         RIVER LEAKAGE =       57856.0156
            RECHARGE =           0.0000              RECHARGE =           0.0000

           TOTAL OUT =     7884852.5000             TOTAL OUT =       58365.4648

            IN - OUT =         412.0000              IN - OUT =           9.5977

 PERCENT DISCREPANCY =           0.01     PERCENT DISCREPANCY =           0.02






         TIME SUMMARY AT END OF TIME STEP   60 IN STRESS PERIOD    3
                    SECONDS     MINUTES      HOURS       DAYS        YEARS
                    -----------------------------------------------------------
   TIME STEP LENGTH  86400.      1440.0      24.000      1.0000     2.73785E-03
 STRESS PERIOD TIME 5.18400E+06  86400.      1440.0      60.000     0.16427    
         TOTAL TIME 1.39104E+07 2.31840E+05  3864.0      161.00     0.44079    
1

 SOLVING FOR HEAD 

    ------------------------------------------------
       NWT REQUIRED            3 OUTER ITERATIONS 
       AND A TOTAL OF          3 INNER ITERATIONS.
    ------------------------------------------------

 OUTPUT CONTROL FOR STRESS PERIOD    3   TIME STEP   61
    SAVE HEAD FOR ALL LAYERS
    SAVE DRAWDOWN FOR ALL LAYERS
    SAVE BUDGET
    PRINT HEAD FOR ALL LAYERS
    PRINT BUDGET
1
              HEAD IN LAYER   1 AT END OF TIME STEP  61 IN STRESS PERIOD    3
  ---------------------------------------------------------------------------

            1           2           3           4           5           6           7           8           9          10
           11          12          13          14          15          16          17          18          19          20
 ........................................................................................................................
   1    0.000       0.000       0.000       0.000       0.000       10.57       10.43       10.86       11.55       11.48    
        10.23       7.359       2.175     -0.4964       5.803       21.61       31.97       37.51       0.000       0.000    
   2    0.000       0.000       0.000       0.000       8.377       7.952       7.153       7.845       9.344       9.625    
        8.757       6.577       2.544     -0.6277       8.390       23.37       33.66       39.57       0.000       0.000    
   3    0.000       0.000       0.000       6.344       6.015       4.037       3.174       3.770       5.231       5.787    
        5.438       4.405       2.786     -0.9574       14.18       26.14       37.11       43.83       0.000       0.000    
   4    0.000       0.000       3.609       3.924       2.686     -0.8012     -0.4588     -0.6163     -0.9409     -0.8656    
      -0.8281     -0.5845       1.303      -1.051       19.10       32.41       42.16       50.79       0.000       0.000    
   5    0.000       0.000      0.3399     -0.1352      -1.159     -0.3791       4.935       8.287       11.45       12.13    
        9.948     -0.3756      -1.035      0.3087       26.12       39.71       53.42       64.49       75.41       0.000    
   6    0.000      -1.065      -1.266     -0.8167       1.963       10.77       16.11       19.77       22.38       23.93    
        23.67       21.58       22.98       28.15       41.01       53.47       67.83       72.91       77.87       0.000    
   7    0.000       9.785       11.36       13.23       16.36       21.40       25.81       29.20       31.23       34.23    
        35.84       37.09       40.08       45.63       54.91       65.16       74.21       80.26       0.000       0.000    
   8    0.000       16.05       20.36       22.99       26.02       29.81       33.58       36.94       39.79       42.71    
        45.31       48.09       51.99       57.58       65.05       73.22       80.72       88.81       0.000       0.000    
   9    0.000       0.000       28.11       29.79       32.36       35.56       38.96       42.27       45.40       48.52    
        51.66       55.16       59.50       65.02       71.72       79.05       86.49       94.46       102.3       107.2    
  10    0.000       0.000       31.87       33.22       35.53       38.47       41.70       44.97       48.19       51.44    
        54.82       58.61       63.13       68.61       75.00       82.00       89.22       96.46       102.8       106.5    

 HEAD WILL BE SAVED ON UNIT   51 AT END OF TIME STEP   61, STRESS PERIOD    3

 DRAWDOWN WILL BE SAVED ON UNIT   52 AT END OF TIME STEP   61, STRESS PERIOD    3
1
  VOLUMETRIC BUDGET FOR ENTIRE MODEL AT END OF TIME STEP   61, STRESS PERIOD   3
  ------------------------------------------------------------------------------

     CUMULATIVE VOLUMES      L**3       RATES FOR THIS TIME STEP      L**3/T
     ------------------                 ------------------------

           IN:                                      IN:
           ---                                      ---
             STORAGE =     3353840.5000               STORAGE =       37800.6133
       CONSTANT HEAD =           0.0000         CONSTANT HEAD =           0.0000
               WELLS =           0.0000                 WELLS =           0.0000
       RIVER LEAKAGE =           0.0000         RIVER LEAKAGE =           0.0000
            RECHARGE =     4589486.5000              RECHARGE =       20261.7871

            TOTAL IN =     7943327.0000              TOTAL IN =       58062.3984

          OUT:                                     OUT:
          ----                                     ----
             STORAGE =      790712.7500               STORAGE =           0.0000
       CONSTANT HEAD =           0.0000         CONSTANT HEAD =           0.0000
               WELLS =       82530.6172                 WELLS =         509.4487
       RIVER LEAKAGE =     7069662.0000         RIVER LEAKAGE =       57543.4297
            RECHARGE =           0.0000              RECHARGE =           0.0000

           TOTAL OUT =     7942905.5000             TOTAL OUT =       58052.8789

            IN - OUT =         421.5000              IN - OUT =           9.5195

 PERCENT DISCREPANCY =           0.01     PERCENT DISCREPANCY =           0.02






         TIME SUMMARY AT END OF TIME STEP   61 IN STRESS PERIOD    3
                    SECONDS     MINUTES      HOURS       DAYS        YEARS
                    -----------------------------------------------------------
   TIME STEP LENGTH  86400.      1440.0      24.000      1.0000     2.73785E-03
 STRESS PERIOD TIME 5.27040E+06  87840.      1464.0      61.000     0.16701    
         TOTAL TIME 1.39968E+07 2.33280E+05  3888.0      162.00     0.44353    
1

 SOLVING FOR HEAD 

    ------------------------------------------------
       NWT REQUIRED            3 OUTER ITERATIONS 
       AND A TOTAL OF          3 INNER ITERATIONS.
    ------------------------------------------------

 OUTPUT CONTROL FOR STRESS PERIOD    3   TIME STEP   62
    SAVE HEAD FOR ALL LAYERS
    SAVE DRAWDOWN FOR ALL LAYERS
    SAVE BUDGET
    PRINT HEAD FOR ALL LAYERS
    PRINT BUDGET
1
              HEAD IN LAYER   1 AT END OF TIME STEP  62 IN STRESS PERIOD    3
  ---------------------------------------------------------------------------

            1           2           3           4           5           6           7           8           9          10
           11          12          13          14          15          16          17          18          19          20
 ........................................................................................................................
   1    0.000       0.000       0.000       0.000       0.000       10.57       10.42       10.86       11.55       11.48    
        10.23       7.359       2.173     -0.5004       5.801       21.61       31.97       37.51       0.000       0.000    
   2    0.000       0.000       0.000       0.000       8.376       7.952       7.152       7.844       9.343       9.625    
        8.756       6.576       2.542     -0.6326       8.388       23.37       33.66       39.57       0.000       0.000    
   3    0.000       0.000       0.000       6.343       6.014       4.035       3.172       3.768       5.229       5.785    
        5.437       4.404       2.784     -0.9637       14.18       26.14       37.11       43.83       0.000       0.000    
   4    0.000       0.000       3.608       3.923       2.684     -0.8066     -0.4632     -0.6217     -0.9473     -0.8719    
      -0.8341     -0.5887       1.301      -1.058       19.10       32.41       42.16       50.79       0.000       0.000    
   5    0.000       0.000      0.3349     -0.1374      -1.165     -0.3838       4.933       8.286       11.45       12.13    
        9.947     -0.3806      -1.041      0.3044       26.12       39.71       53.42       64.49       75.41       0.000    
   6    0.000      -1.072      -1.273     -0.8228       1.957       10.77       16.11       19.76       22.38       23.93    
        23.67       21.58       22.98       28.15       41.01       53.47       67.83       72.91       77.87       0.000    
   7    0.000       9.784       11.36       13.22       16.36       21.40       25.81       29.20       31.23       34.23    
        35.84       37.09       40.08       45.63       54.91       65.16       74.21       80.26       0.000       0.000    
   8    0.000       16.05       20.36       22.99       26.02       29.81       33.58       36.94       39.79       42.71    
        45.31       48.09       51.99       57.58       65.05       73.22       80.72       88.81       0.000       0.000    
   9    0.000       0.000       28.11       29.79       32.36       35.56       38.96       42.27       45.40       48.52    
        51.66       55.16       59.50       65.02       71.71       79.05       86.49       94.46       102.3       107.2    
  10    0.000       0.000       31.87       33.22       35.53       38.47       41.70       44.97       48.19       51.44    
        54.82       58.61       63.13       68.61       75.00       81.99       89.22       96.46       102.8       106.5    

 HEAD WILL BE SAVED ON UNIT   51 AT END OF TIME STEP   62, STRESS PERIOD    3

 DRAWDOWN WILL BE SAVED ON UNIT   52 AT END OF TIME STEP   62, STRESS PERIOD    3
1
  VOLUMETRIC BUDGET FOR ENTIRE MODEL AT END OF TIME STEP   62, STRESS PERIOD   3
  ------------------------------------------------------------------------------

     CUMULATIVE VOLUMES      L**3       RATES FOR THIS TIME STEP      L**3/T
     ------------------                 ------------------------

           IN:                                      IN:
           ---                                      ---
             STORAGE =     3391332.0000               STORAGE =       37491.5078
       CONSTANT HEAD =           0.0000         CONSTANT HEAD =           0.0000
               WELLS =           0.0000                 WELLS =           0.0000
       RIVER LEAKAGE =           0.0000         RIVER LEAKAGE =           0.0000
            RECHARGE =     4609748.5000              RECHARGE =       20261.7871

            TOTAL IN =     8001080.5000              TOTAL IN =       57753.2969

          OUT:                                     OUT:
          ----                                     ----
             STORAGE =      790712.7500               STORAGE =           0.0000
       CONSTANT HEAD =           0.0000         CONSTANT HEAD =           0.0000
               WELLS =       83040.0625                 WELLS =         509.4487
       RIVER LEAKAGE =     7126896.5000         RIVER LEAKAGE =       57234.4023
            RECHARGE =           0.0000              RECHARGE =           0.0000

           TOTAL OUT =     8000649.5000             TOTAL OUT =       57743.8516

            IN - OUT =         431.0000              IN - OUT =           9.4453

 PERCENT DISCREPANCY =           0.01     PERCENT DISCREPANCY =           0.02






         TIME SUMMARY AT END OF TIME STEP   62 IN STRESS PERIOD    3
                    SECONDS     MINUTES      HOURS       DAYS        YEARS
                    -----------------------------------------------------------
   TIME STEP LENGTH  86400.      1440.0      24.000      1.0000     2.73785E-03
 STRESS PERIOD TIME 5.35680E+06  89280.      1488.0      62.000     0.16975    
         TOTAL TIME 1.40832E+07 2.34720E+05  3912.0      163.00     0.44627    
1

 SOLVING FOR HEAD 

    ------------------------------------------------
       NWT REQUIRED            3 OUTER ITERATIONS 
       AND A TOTAL OF          3 INNER ITERATIONS.
    ------------------------------------------------

 OUTPUT CONTROL FOR STRESS PERIOD    3   TIME STEP   63
    SAVE HEAD FOR ALL LAYERS
    SAVE DRAWDOWN FOR ALL LAYERS
    SAVE BUDGET
    PRINT HEAD FOR ALL LAYERS
    PRINT BUDGET
1
              HEAD IN LAYER   1 AT END OF TIME STEP  63 IN STRESS PERIOD    3
  ---------------------------------------------------------------------------

            1           2           3           4           5           6           7           8           9          10
           11          12          13          14          15          16          17          18          19          20
 ........................................................................................................................
   1    0.000       0.000       0.000       0.000       0.000       10.57       10.42       10.86       11.54       11.48    
        10.23       7.358       2.171     -0.5043       5.799       21.61       31.97       37.51       0.000       0.000    
   2    0.000       0.000       0.000       0.000       8.375       7.951       7.151       7.843       9.343       9.624    
        8.755       6.576       2.541     -0.6375       8.387       23.37       33.66       39.57       0.000       0.000    
   3    0.000       0.000       0.000       6.343       6.013       4.033       3.170       3.765       5.228       5.784    
        5.436       4.402       2.783     -0.9700       14.17       26.14       37.11       43.82       0.000       0.000    
   4    0.000       0.000       3.607       3.922       2.681     -0.8120     -0.4677     -0.6270     -0.9536     -0.8781    
      -0.8400     -0.5929       1.298      -1.064       19.10       32.41       42.16       50.79       0.000       0.000    
   5    0.000       0.000      0.3300     -0.1397      -1.171     -0.3884       4.931       8.284       11.45       12.12    
        9.945     -0.3855      -1.048      0.3002       26.11       39.71       53.42       64.49       75.41       0.000    
   6    0.000      -1.078      -1.280     -0.8289       1.952       10.76       16.11       19.76       22.38       23.93    
        23.67       21.57       22.98       28.15       41.01       53.47       67.83       72.91       77.86       0.000    
   7    0.000       9.782       11.36       13.22       16.36       21.40       25.81       29.20       31.23       34.22    
        35.84       37.09       40.08       45.63       54.91       65.16       74.20       80.26       0.000       0.000    
   8    0.000       16.05       20.36       22.99       26.02       29.81       33.58       36.94       39.79       42.71    
        45.31       48.08       51.99       57.58       65.05       73.22       80.72       88.81       0.000       0.000    
   9    0.000       0.000       28.11       29.79       32.35       35.56       38.96       42.27       45.40       48.52    
        51.66       55.16       59.50       65.02       71.71       79.05       86.49       94.46       102.3       107.2    
  10    0.000       0.000       31.87       33.22       35.53       38.47       41.70       44.97       48.19       51.44    
        54.82       58.61       63.13       68.61       75.00       81.99       89.22       96.45       102.8       106.5    

 HEAD WILL BE SAVED ON UNIT   51 AT END OF TIME STEP   63, STRESS PERIOD    3

 DRAWDOWN WILL BE SAVED ON UNIT   52 AT END OF TIME STEP   63, STRESS PERIOD    3
1
  VOLUMETRIC BUDGET FOR ENTIRE MODEL AT END OF TIME STEP   63, STRESS PERIOD   3
  ------------------------------------------------------------------------------

     CUMULATIVE VOLUMES      L**3       RATES FOR THIS TIME STEP      L**3/T
     ------------------                 ------------------------

           IN:                                      IN:
           ---                                      ---
             STORAGE =     3428518.0000               STORAGE =       37185.9141
       CONSTANT HEAD =           0.0000         CONSTANT HEAD =           0.0000
               WELLS =           0.0000                 WELLS =           0.0000
       RIVER LEAKAGE =           0.0000         RIVER LEAKAGE =           0.0000
            RECHARGE =     4630010.5000              RECHARGE =       20261.7871

            TOTAL IN =     8058528.5000              TOTAL IN =       57447.7031

          OUT:                                     OUT:
          ----                                     ----
             STORAGE =      790712.7500               STORAGE =           0.0000
       CONSTANT HEAD =           0.0000         CONSTANT HEAD =           0.0000
               WELLS =       83549.5078                 WELLS =         509.4487
       RIVER LEAKAGE =     7183825.5000         RIVER LEAKAGE =       56928.8867
            RECHARGE =           0.0000              RECHARGE =           0.0000

           TOTAL OUT =     8058088.0000             TOTAL OUT =       57438.3359

            IN - OUT =         440.5000              IN - OUT =           9.3672

 PERCENT DISCREPANCY =           0.01     PERCENT DISCREPANCY =           0.02






         TIME SUMMARY AT END OF TIME STEP   63 IN STRESS PERIOD    3
                    SECONDS     MINUTES      HOURS       DAYS        YEARS
                    -----------------------------------------------------------
   TIME STEP LENGTH  86400.      1440.0      24.000      1.0000     2.73785E-03
 STRESS PERIOD TIME 5.44320E+06  90720.      1512.0      63.000     0.17248    
         TOTAL TIME 1.41696E+07 2.36160E+05  3936.0      164.00     0.44901    
1

 SOLVING FOR HEAD 

    ------------------------------------------------
       NWT REQUIRED            3 OUTER ITERATIONS 
       AND A TOTAL OF          3 INNER ITERATIONS.
    ------------------------------------------------

 OUTPUT CONTROL FOR STRESS PERIOD    3   TIME STEP   64
    SAVE HEAD FOR ALL LAYERS
    SAVE DRAWDOWN FOR ALL LAYERS
    SAVE BUDGET
    PRINT HEAD FOR ALL LAYERS
    PRINT BUDGET
1
              HEAD IN LAYER   1 AT END OF TIME STEP  64 IN STRESS PERIOD    3
  ---------------------------------------------------------------------------

            1           2           3           4           5           6           7           8           9          10
           11          12          13          14          15          16          17          18          19          20
 ........................................................................................................................
   1    0.000       0.000       0.000       0.000       0.000       10.57       10.42       10.86       11.54       11.48    
        10.23       7.357       2.169     -0.5083       5.797       21.61       31.97       37.51       0.000       0.000    
   2    0.000       0.000       0.000       0.000       8.375       7.950       7.150       7.842       9.342       9.623    
        8.755       6.575       2.539     -0.6424       8.385       23.37       33.66       39.56       0.000       0.000    
   3    0.000       0.000       0.000       6.342       6.012       4.031       3.168       3.763       5.226       5.782    
        5.434       4.401       2.781     -0.9762       14.17       26.14       37.10       43.82       0.000       0.000    
   4    0.000       0.000       3.606       3.921       2.679     -0.8174     -0.4721     -0.6324     -0.9598     -0.8842    
      -0.8460     -0.5971       1.295      -1.071       19.10       32.41       42.16       50.78       0.000       0.000    
   5    0.000       0.000      0.3251     -0.1419      -1.178     -0.3930       4.929       8.282       11.45       12.12    
        9.943     -0.3904      -1.055      0.2961       26.11       39.71       53.42       64.49       75.41       0.000    
   6    0.000      -1.085      -1.286     -0.8349       1.946       10.76       16.11       19.76       22.38       23.93    
        23.67       21.57       22.97       28.15       41.01       53.47       67.82       72.91       77.86       0.000    
   7    0.000       9.781       11.35       13.22       16.36       21.40       25.81       29.20       31.23       34.22    
        35.84       37.09       40.08       45.63       54.91       65.16       74.20       80.25       0.000       0.000    
   8    0.000       16.05       20.36       22.99       26.01       29.81       33.58       36.94       39.79       42.71    
        45.31       48.08       51.99       57.58       65.05       73.22       80.72       88.81       0.000       0.000    
   9    0.000       0.000       28.11       29.79       32.35       35.56       38.96       42.27       45.40       48.52    
        51.66       55.16       59.50       65.02       71.71       79.05       86.49       94.46       102.3       107.2    
  10    0.000       0.000       31.87       33.22       35.53       38.47       41.70       44.97       48.19       51.44    
        54.82       58.60       63.13       68.60       75.00       81.99       89.22       96.45       102.8       106.5    

 HEAD WILL BE SAVED ON UNIT   51 AT END OF TIME STEP   64, STRESS PERIOD    3

 DRAWDOWN WILL BE SAVED ON UNIT   52 AT END OF TIME STEP   64, STRESS PERIOD    3
1
  VOLUMETRIC BUDGET FOR ENTIRE MODEL AT END OF TIME STEP   64, STRESS PERIOD   3
  ------------------------------------------------------------------------------

     CUMULATIVE VOLUMES      L**3       RATES FOR THIS TIME STEP      L**3/T
     ------------------                 ------------------------

           IN:                                      IN:
           ---                                      ---
             STORAGE =     3465401.7500               STORAGE =       36883.7891
       CONSTANT HEAD =           0.0000         CONSTANT HEAD =           0.0000
               WELLS =           0.0000                 WELLS =           0.0000
       RIVER LEAKAGE =           0.0000         RIVER LEAKAGE =           0.0000
            RECHARGE =     4650272.5000              RECHARGE =       20261.7871

            TOTAL IN =     8115674.0000              TOTAL IN =       57145.5781

          OUT:                                     OUT:
          ----                                     ----
             STORAGE =      790712.7500               STORAGE =           0.0000
       CONSTANT HEAD =           0.0000         CONSTANT HEAD =           0.0000
               WELLS =       84058.9531                 WELLS =         509.4487
       RIVER LEAKAGE =     7240452.5000         RIVER LEAKAGE =       56626.8359
            RECHARGE =           0.0000              RECHARGE =           0.0000

           TOTAL OUT =     8115224.0000             TOTAL OUT =       57136.2852

            IN - OUT =         450.0000              IN - OUT =           9.2930

 PERCENT DISCREPANCY =           0.01     PERCENT DISCREPANCY =           0.02






         TIME SUMMARY AT END OF TIME STEP   64 IN STRESS PERIOD    3
                    SECONDS     MINUTES      HOURS       DAYS        YEARS
                    -----------------------------------------------------------
   TIME STEP LENGTH  86400.      1440.0      24.000      1.0000     2.73785E-03
 STRESS PERIOD TIME 5.52960E+06  92160.      1536.0      64.000     0.17522    
         TOTAL TIME 1.42560E+07 2.37600E+05  3960.0      165.00     0.45175    
1

 SOLVING FOR HEAD 

    ------------------------------------------------
       NWT REQUIRED            3 OUTER ITERATIONS 
       AND A TOTAL OF          3 INNER ITERATIONS.
    ------------------------------------------------

 OUTPUT CONTROL FOR STRESS PERIOD    3   TIME STEP   65
    SAVE HEAD FOR ALL LAYERS
    SAVE DRAWDOWN FOR ALL LAYERS
    SAVE BUDGET
    PRINT HEAD FOR ALL LAYERS
    PRINT BUDGET
1
              HEAD IN LAYER   1 AT END OF TIME STEP  65 IN STRESS PERIOD    3
  ---------------------------------------------------------------------------

            1           2           3           4           5           6           7           8           9          10
           11          12          13          14          15          16          17          18          19          20
 ........................................................................................................................
   1    0.000       0.000       0.000       0.000       0.000       10.57       10.42       10.86       11.54       11.48    
        10.23       7.357       2.167     -0.5122       5.795       21.61       31.97       37.51       0.000       0.000    
   2    0.000       0.000       0.000       0.000       8.374       7.950       7.149       7.841       9.341       9.623    
        8.754       6.574       2.537     -0.6472       8.383       23.37       33.66       39.56       0.000       0.000    
   3    0.000       0.000       0.000       6.341       6.011       4.029       3.166       3.761       5.225       5.781    
        5.433       4.400       2.779     -0.9823       14.17       26.14       37.10       43.82       0.000       0.000    
   4    0.000       0.000       3.604       3.919       2.677     -0.8227     -0.4765     -0.6376     -0.9660     -0.8903    
      -0.8518     -0.6012       1.292      -1.077       19.10       32.41       42.16       50.78       0.000       0.000    
   5    0.000       0.000      0.3203     -0.1441      -1.184     -0.3975       4.926       8.280       11.45       12.12    
        9.941     -0.3952      -1.061      0.2922       26.11       39.70       53.42       64.49       75.41       0.000    
   6    0.000      -1.091      -1.292     -0.8408       1.940       10.76       16.11       19.76       22.38       23.93    
        23.67       21.57       22.97       28.14       41.01       53.47       67.82       72.91       77.86       0.000    
   7    0.000       9.779       11.35       13.22       16.36       21.40       25.81       29.20       31.23       34.22    
        35.84       37.09       40.08       45.63       54.91       65.16       74.20       80.25       0.000       0.000    
   8    0.000       16.05       20.36       22.99       26.01       29.81       33.58       36.93       39.79       42.71    
        45.31       48.08       51.99       57.58       65.05       73.22       80.72       88.81       0.000       0.000    
   9    0.000       0.000       28.11       29.79       32.35       35.56       38.96       42.27       45.40       48.52    
        51.66       55.16       59.50       65.02       71.71       79.05       86.49       94.46       102.3       107.2    
  10    0.000       0.000       31.87       33.22       35.53       38.47       41.69       44.97       48.19       51.44    
        54.82       58.60       63.13       68.60       75.00       81.99       89.22       96.45       102.8       106.5    

 HEAD WILL BE SAVED ON UNIT   51 AT END OF TIME STEP   65, STRESS PERIOD    3

 DRAWDOWN WILL BE SAVED ON UNIT   52 AT END OF TIME STEP   65, STRESS PERIOD    3
1
  VOLUMETRIC BUDGET FOR ENTIRE MODEL AT END OF TIME STEP   65, STRESS PERIOD   3
  ------------------------------------------------------------------------------

     CUMULATIVE VOLUMES      L**3       RATES FOR THIS TIME STEP      L**3/T
     ------------------                 ------------------------

           IN:                                      IN:
           ---                                      ---
             STORAGE =     3501986.7500               STORAGE =       36585.0820
       CONSTANT HEAD =           0.0000         CONSTANT HEAD =           0.0000
               WELLS =           0.0000                 WELLS =           0.0000
       RIVER LEAKAGE =           0.0000         RIVER LEAKAGE =           0.0000
            RECHARGE =     4670534.5000              RECHARGE =       20261.7871

            TOTAL IN =     8172521.0000              TOTAL IN =       56846.8672

          OUT:                                     OUT:
          ----                                     ----
             STORAGE =      790712.7500               STORAGE =           0.0000
       CONSTANT HEAD =           0.0000         CONSTANT HEAD =           0.0000
               WELLS =       84568.3984                 WELLS =         509.4487
       RIVER LEAKAGE =     7296780.5000         RIVER LEAKAGE =       56328.2070
            RECHARGE =           0.0000              RECHARGE =           0.0000

           TOTAL OUT =     8172061.5000             TOTAL OUT =       56837.6562

            IN - OUT =         459.5000              IN - OUT =           9.2109

 PERCENT DISCREPANCY =           0.01     PERCENT DISCREPANCY =           0.02






         TIME SUMMARY AT END OF TIME STEP   65 IN STRESS PERIOD    3
                    SECONDS     MINUTES      HOURS       DAYS        YEARS
                    -----------------------------------------------------------
   TIME STEP LENGTH  86400.      1440.0      24.000      1.0000     2.73785E-03
 STRESS PERIOD TIME 5.61600E+06  93600.      1560.0      65.000     0.17796    
         TOTAL TIME 1.43424E+07 2.39040E+05  3984.0      166.00     0.45448    
1

 SOLVING FOR HEAD 

    ------------------------------------------------
       NWT REQUIRED            3 OUTER ITERATIONS 
       AND A TOTAL OF          3 INNER ITERATIONS.
    ------------------------------------------------

 OUTPUT CONTROL FOR STRESS PERIOD    3   TIME STEP   66
    SAVE HEAD FOR ALL LAYERS
    SAVE DRAWDOWN FOR ALL LAYERS
    SAVE BUDGET
    PRINT HEAD FOR ALL LAYERS
    PRINT BUDGET
1
              HEAD IN LAYER   1 AT END OF TIME STEP  66 IN STRESS PERIOD    3
  ---------------------------------------------------------------------------

            1           2           3           4           5           6           7           8           9          10
           11          12          13          14          15          16          17          18          19          20
 ........................................................................................................................
   1    0.000       0.000       0.000       0.000       0.000       10.57       10.42       10.86       11.54       11.48    
        10.23       7.356       2.165     -0.5161       5.793       21.61       31.97       37.51       0.000       0.000    
   2    0.000       0.000       0.000       0.000       8.373       7.949       7.148       7.841       9.341       9.622    
        8.753       6.573       2.535     -0.6520       8.381       23.37       33.66       39.56       0.000       0.000    
   3    0.000       0.000       0.000       6.341       6.010       4.027       3.163       3.759       5.223       5.779    
        5.431       4.399       2.778     -0.9883       14.17       26.14       37.10       43.82       0.000       0.000    
   4    0.000       0.000       3.603       3.918       2.674     -0.8280     -0.4808     -0.6429     -0.9720     -0.8963    
      -0.8576     -0.6054       1.290      -1.083       19.10       32.41       42.15       50.78       0.000       0.000    
   5    0.000       0.000      0.3155     -0.1464      -1.190     -0.4020       4.924       8.279       11.44       12.12    
        9.939     -0.4000      -1.067      0.2884       26.11       39.70       53.42       64.48       75.41       0.000    
   6    0.000      -1.097      -1.298     -0.8467       1.934       10.76       16.11       19.76       22.38       23.92    
        23.67       21.57       22.97       28.14       41.01       53.47       67.82       72.91       77.86       0.000    
   7    0.000       9.777       11.35       13.22       16.35       21.40       25.81       29.20       31.23       34.22    
        35.84       37.09       40.08       45.63       54.91       65.16       74.20       80.25       0.000       0.000    
   8    0.000       16.05       20.36       22.99       26.01       29.81       33.58       36.93       39.79       42.71    
        45.31       48.08       51.99       57.58       65.05       73.22       80.72       88.81       0.000       0.000    
   9    0.000       0.000       28.11       29.78       32.35       35.56       38.96       42.27       45.40       48.52    
        51.66       55.16       59.50       65.02       71.71       79.05       86.49       94.46       102.3       107.2    
  10    0.000       0.000       31.87       33.22       35.52       38.47       41.69       44.97       48.19       51.44    
        54.82       58.60       63.13       68.60       75.00       81.99       89.22       96.45       102.8       106.5    

 HEAD WILL BE SAVED ON UNIT   51 AT END OF TIME STEP   66, STRESS PERIOD    3

 DRAWDOWN WILL BE SAVED ON UNIT   52 AT END OF TIME STEP   66, STRESS PERIOD    3
1
  VOLUMETRIC BUDGET FOR ENTIRE MODEL AT END OF TIME STEP   66, STRESS PERIOD   3
  ------------------------------------------------------------------------------

     CUMULATIVE VOLUMES      L**3       RATES FOR THIS TIME STEP      L**3/T
     ------------------                 ------------------------

           IN:                                      IN:
           ---                                      ---
             STORAGE =     3538276.5000               STORAGE =       36289.7500
       CONSTANT HEAD =           0.0000         CONSTANT HEAD =           0.0000
               WELLS =           0.0000                 WELLS =           0.0000
       RIVER LEAKAGE =           0.0000         RIVER LEAKAGE =           0.0000
            RECHARGE =     4690796.5000              RECHARGE =       20261.7871

            TOTAL IN =     8229073.0000              TOTAL IN =       56551.5391

          OUT:                                     OUT:
          ----                                     ----
             STORAGE =      790712.7500               STORAGE =           0.0000
       CONSTANT HEAD =           0.0000         CONSTANT HEAD =           0.0000
               WELLS =       85077.8438                 WELLS =         509.4487
       RIVER LEAKAGE =     7352813.5000         RIVER LEAKAGE =       56032.9453
            RECHARGE =           0.0000              RECHARGE =           0.0000

           TOTAL OUT =     8228604.0000             TOTAL OUT =       56542.3945

            IN - OUT =         469.0000              IN - OUT =           9.1445

 PERCENT DISCREPANCY =           0.01     PERCENT DISCREPANCY =           0.02






         TIME SUMMARY AT END OF TIME STEP   66 IN STRESS PERIOD    3
                    SECONDS     MINUTES      HOURS       DAYS        YEARS
                    -----------------------------------------------------------
   TIME STEP LENGTH  86400.      1440.0      24.000      1.0000     2.73785E-03
 STRESS PERIOD TIME 5.70240E+06  95040.      1584.0      66.000     0.18070    
         TOTAL TIME 1.44288E+07 2.40480E+05  4008.0      167.00     0.45722    
1

 SOLVING FOR HEAD 

    ------------------------------------------------
       NWT REQUIRED            3 OUTER ITERATIONS 
       AND A TOTAL OF          3 INNER ITERATIONS.
    ------------------------------------------------

 OUTPUT CONTROL FOR STRESS PERIOD    3   TIME STEP   67
    SAVE HEAD FOR ALL LAYERS
    SAVE DRAWDOWN FOR ALL LAYERS
    SAVE BUDGET
    PRINT HEAD FOR ALL LAYERS
    PRINT BUDGET
1
              HEAD IN LAYER   1 AT END OF TIME STEP  67 IN STRESS PERIOD    3
  ---------------------------------------------------------------------------

            1           2           3           4           5           6           7           8           9          10
           11          12          13          14          15          16          17          18          19          20
 ........................................................................................................................
   1    0.000       0.000       0.000       0.000       0.000       10.57       10.42       10.86       11.54       11.48    
        10.23       7.355       2.163     -0.5199       5.791       21.61       31.97       37.51       0.000       0.000    
   2    0.000       0.000       0.000       0.000       8.373       7.948       7.148       7.840       9.340       9.621    
        8.753       6.573       2.533     -0.6568       8.379       23.37       33.66       39.56       0.000       0.000    
   3    0.000       0.000       0.000       6.340       6.009       4.025       3.161       3.757       5.221       5.778    
        5.430       4.398       2.776     -0.9943       14.17       26.14       37.10       43.82       0.000       0.000    
   4    0.000       0.000       3.602       3.917       2.672     -0.8333     -0.4852     -0.6481     -0.9781     -0.9022    
      -0.8633     -0.6095       1.287      -1.090       19.10       32.41       42.15       50.78       0.000       0.000    
   5    0.000       0.000      0.3107     -0.1486      -1.196     -0.4065       4.922       8.277       11.44       12.12    
        9.937     -0.4048      -1.073      0.2847       26.11       39.70       53.42       64.48       75.41       0.000    
   6    0.000      -1.103      -1.304     -0.8525       1.929       10.76       16.10       19.76       22.38       23.92    
        23.66       21.57       22.97       28.14       41.01       53.47       67.82       72.91       77.86       0.000    
   7    0.000       9.776       11.35       13.22       16.35       21.40       25.80       29.20       31.23       34.22    
        35.84       37.09       40.08       45.63       54.91       65.16       74.20       80.25       0.000       0.000    
   8    0.000       16.05       20.36       22.99       26.01       29.81       33.58       36.93       39.79       42.70    
        45.31       48.08       51.98       57.58       65.05       73.22       80.72       88.81       0.000       0.000    
   9    0.000       0.000       28.11       29.78       32.35       35.56       38.96       42.27       45.40       48.52    
        51.66       55.15       59.50       65.02       71.71       79.04       86.49       94.46       102.3       107.2    
  10    0.000       0.000       31.86       33.22       35.52       38.46       41.69       44.96       48.19       51.44    
        54.82       58.60       63.13       68.60       75.00       81.99       89.22       96.45       102.8       106.5    

 HEAD WILL BE SAVED ON UNIT   51 AT END OF TIME STEP   67, STRESS PERIOD    3

 DRAWDOWN WILL BE SAVED ON UNIT   52 AT END OF TIME STEP   67, STRESS PERIOD    3
1
  VOLUMETRIC BUDGET FOR ENTIRE MODEL AT END OF TIME STEP   67, STRESS PERIOD   3
  ------------------------------------------------------------------------------

     CUMULATIVE VOLUMES      L**3       RATES FOR THIS TIME STEP      L**3/T
     ------------------                 ------------------------

           IN:                                      IN:
           ---                                      ---
             STORAGE =     3574274.2500               STORAGE =       35997.7422
       CONSTANT HEAD =           0.0000         CONSTANT HEAD =           0.0000
               WELLS =           0.0000                 WELLS =           0.0000
       RIVER LEAKAGE =           0.0000         RIVER LEAKAGE =           0.0000
            RECHARGE =     4711058.5000              RECHARGE =       20261.7871

            TOTAL IN =     8285333.0000              TOTAL IN =       56259.5312

          OUT:                                     OUT:
          ----                                     ----
             STORAGE =      790712.7500               STORAGE =           0.0000
       CONSTANT HEAD =           0.0000         CONSTANT HEAD =           0.0000
               WELLS =       85587.2891                 WELLS =         509.4487
       RIVER LEAKAGE =     7408554.5000         RIVER LEAKAGE =       55741.0117
            RECHARGE =           0.0000              RECHARGE =           0.0000

           TOTAL OUT =     8284854.5000             TOTAL OUT =       56250.4609

            IN - OUT =         478.5000              IN - OUT =           9.0703

 PERCENT DISCREPANCY =           0.01     PERCENT DISCREPANCY =           0.02






         TIME SUMMARY AT END OF TIME STEP   67 IN STRESS PERIOD    3
                    SECONDS     MINUTES      HOURS       DAYS        YEARS
                    -----------------------------------------------------------
   TIME STEP LENGTH  86400.      1440.0      24.000      1.0000     2.73785E-03
 STRESS PERIOD TIME 5.78880E+06  96480.      1608.0      67.000     0.18344    
         TOTAL TIME 1.45152E+07 2.41920E+05  4032.0      168.00     0.45996    
1

 SOLVING FOR HEAD 

    ------------------------------------------------
       NWT REQUIRED            3 OUTER ITERATIONS 
       AND A TOTAL OF          3 INNER ITERATIONS.
    ------------------------------------------------

 OUTPUT CONTROL FOR STRESS PERIOD    3   TIME STEP   68
    SAVE HEAD FOR ALL LAYERS
    SAVE DRAWDOWN FOR ALL LAYERS
    SAVE BUDGET
    PRINT HEAD FOR ALL LAYERS
    PRINT BUDGET
1
              HEAD IN LAYER   1 AT END OF TIME STEP  68 IN STRESS PERIOD    3
  ---------------------------------------------------------------------------

            1           2           3           4           5           6           7           8           9          10
           11          12          13          14          15          16          17          18          19          20
 ........................................................................................................................
   1    0.000       0.000       0.000       0.000       0.000       10.57       10.42       10.86       11.54       11.48    
        10.23       7.354       2.161     -0.5238       5.789       21.61       31.97       37.50       0.000       0.000    
   2    0.000       0.000       0.000       0.000       8.372       7.947       7.147       7.839       9.339       9.621    
        8.752       6.572       2.531     -0.6615       8.377       23.36       33.66       39.56       0.000       0.000    
   3    0.000       0.000       0.000       6.339       6.009       4.023       3.159       3.755       5.220       5.776    
        5.429       4.397       2.775      -1.000       14.17       26.14       37.10       43.82       0.000       0.000    
   4    0.000       0.000       3.601       3.916       2.670     -0.8385     -0.4895     -0.6532     -0.9840     -0.9081    
      -0.8690     -0.6136       1.284      -1.096       19.09       32.41       42.15       50.78       0.000       0.000    
   5    0.000       0.000      0.3059     -0.1508      -1.202     -0.4110       4.920       8.275       11.44       12.12    
        9.935     -0.4095      -1.079      0.2812       26.11       39.70       53.41       64.48       75.41       0.000    
   6    0.000      -1.110      -1.310     -0.8583       1.923       10.76       16.10       19.76       22.37       23.92    
        23.66       21.57       22.97       28.14       41.01       53.46       67.82       72.91       77.86       0.000    
   7    0.000       9.774       11.35       13.22       16.35       21.40       25.80       29.20       31.23       34.22    
        35.84       37.08       40.08       45.63       54.91       65.16       74.20       80.25       0.000       0.000    
   8    0.000       16.05       20.35       22.99       26.01       29.81       33.58       36.93       39.79       42.70    
        45.31       48.08       51.98       57.58       65.05       73.22       80.72       88.81       0.000       0.000    
   9    0.000       0.000       28.11       29.78       32.35       35.56       38.96       42.27       45.40       48.52    
        51.66       55.15       59.50       65.02       71.71       79.04       86.49       94.46       102.3       107.2    
  10    0.000       0.000       31.86       33.21       35.52       38.46       41.69       44.96       48.19       51.44    
        54.82       58.60       63.13       68.60       75.00       81.99       89.22       96.45       102.8       106.5    

 HEAD WILL BE SAVED ON UNIT   51 AT END OF TIME STEP   68, STRESS PERIOD    3

 DRAWDOWN WILL BE SAVED ON UNIT   52 AT END OF TIME STEP   68, STRESS PERIOD    3
1
  VOLUMETRIC BUDGET FOR ENTIRE MODEL AT END OF TIME STEP   68, STRESS PERIOD   3
  ------------------------------------------------------------------------------

     CUMULATIVE VOLUMES      L**3       RATES FOR THIS TIME STEP      L**3/T
     ------------------                 ------------------------

           IN:                                      IN:
           ---                                      ---
             STORAGE =     3609983.2500               STORAGE =       35709.0195
       CONSTANT HEAD =           0.0000         CONSTANT HEAD =           0.0000
               WELLS =           0.0000                 WELLS =           0.0000
       RIVER LEAKAGE =           0.0000         RIVER LEAKAGE =           0.0000
            RECHARGE =     4731320.5000              RECHARGE =       20261.7871

            TOTAL IN =     8341304.0000              TOTAL IN =       55970.8047

          OUT:                                     OUT:
          ----                                     ----
             STORAGE =      790712.7500               STORAGE =           0.0000
       CONSTANT HEAD =           0.0000         CONSTANT HEAD =           0.0000
               WELLS =       86096.7344                 WELLS =         509.4487
       RIVER LEAKAGE =     7464007.0000         RIVER LEAKAGE =       55452.3633
            RECHARGE =           0.0000              RECHARGE =           0.0000

           TOTAL OUT =     8340816.5000             TOTAL OUT =       55961.8125

            IN - OUT =         487.5000              IN - OUT =           8.9922

 PERCENT DISCREPANCY =           0.01     PERCENT DISCREPANCY =           0.02






         TIME SUMMARY AT END OF TIME STEP   68 IN STRESS PERIOD    3
                    SECONDS     MINUTES      HOURS       DAYS        YEARS
                    -----------------------------------------------------------
   TIME STEP LENGTH  86400.      1440.0      24.000      1.0000     2.73785E-03
 STRESS PERIOD TIME 5.87520E+06  97920.      1632.0      68.000     0.18617    
         TOTAL TIME 1.46016E+07 2.43360E+05  4056.0      169.00     0.46270    
1

 SOLVING FOR HEAD 

    ------------------------------------------------
       NWT REQUIRED            3 OUTER ITERATIONS 
       AND A TOTAL OF          3 INNER ITERATIONS.
    ------------------------------------------------

 OUTPUT CONTROL FOR STRESS PERIOD    3   TIME STEP   69
    SAVE HEAD FOR ALL LAYERS
    SAVE DRAWDOWN FOR ALL LAYERS
    SAVE BUDGET
    PRINT HEAD FOR ALL LAYERS
    PRINT BUDGET
1
              HEAD IN LAYER   1 AT END OF TIME STEP  69 IN STRESS PERIOD    3
  ---------------------------------------------------------------------------

            1           2           3           4           5           6           7           8           9          10
           11          12          13          14          15          16          17          18          19          20
 ........................................................................................................................
   1    0.000       0.000       0.000       0.000       0.000       10.57       10.42       10.86       11.54       11.48    
        10.23       7.354       2.159     -0.5276       5.787       21.61       31.96       37.50       0.000       0.000    
   2    0.000       0.000       0.000       0.000       8.372       7.947       7.146       7.838       9.339       9.620    
        8.751       6.571       2.529     -0.6662       8.375       23.36       33.66       39.56       0.000       0.000    
   3    0.000       0.000       0.000       6.339       6.008       4.021       3.156       3.752       5.218       5.775    
        5.427       4.395       2.773      -1.006       14.17       26.14       37.10       43.82       0.000       0.000    
   4    0.000       0.000       3.600       3.915       2.667     -0.8436     -0.4938     -0.6583     -0.9899     -0.9139    
      -0.8747     -0.6176       1.281      -1.102       19.09       32.41       42.15       50.78       0.000       0.000    
   5    0.000       0.000      0.3012     -0.1530      -1.208     -0.4155       4.918       8.273       11.44       12.12    
        9.933     -0.4142      -1.085      0.2778       26.10       39.70       53.41       64.48       75.41       0.000    
   6    0.000      -1.116      -1.316     -0.8640       1.918       10.75       16.10       19.76       22.37       23.92    
        23.66       21.57       22.97       28.14       41.01       53.46       67.82       72.91       77.86       0.000    
   7    0.000       9.772       11.34       13.21       16.35       21.40       25.80       29.20       31.23       34.22    
        35.84       37.08       40.08       45.63       54.91       65.16       74.20       80.25       0.000       0.000    
   8    0.000       16.05       20.35       22.99       26.01       29.81       33.58       36.93       39.79       42.70    
        45.30       48.08       51.98       57.58       65.05       73.22       80.71       88.80       0.000       0.000    
   9    0.000       0.000       28.11       29.78       32.35       35.56       38.96       42.26       45.40       48.52    
        51.66       55.15       59.50       65.02       71.71       79.04       86.49       94.46       102.3       107.2    
  10    0.000       0.000       31.86       33.21       35.52       38.46       41.69       44.96       48.19       51.43    
        54.82       58.60       63.12       68.60       75.00       81.99       89.21       96.45       102.8       106.5    

 HEAD WILL BE SAVED ON UNIT   51 AT END OF TIME STEP   69, STRESS PERIOD    3

 DRAWDOWN WILL BE SAVED ON UNIT   52 AT END OF TIME STEP   69, STRESS PERIOD    3
1
  VOLUMETRIC BUDGET FOR ENTIRE MODEL AT END OF TIME STEP   69, STRESS PERIOD   3
  ------------------------------------------------------------------------------

     CUMULATIVE VOLUMES      L**3       RATES FOR THIS TIME STEP      L**3/T
     ------------------                 ------------------------

           IN:                                      IN:
           ---                                      ---
             STORAGE =     3645406.7500               STORAGE =       35423.5312
       CONSTANT HEAD =           0.0000         CONSTANT HEAD =           0.0000
               WELLS =           0.0000                 WELLS =           0.0000
       RIVER LEAKAGE =           0.0000         RIVER LEAKAGE =           0.0000
            RECHARGE =     4751582.5000              RECHARGE =       20261.7871

            TOTAL IN =     8396989.0000              TOTAL IN =       55685.3203

          OUT:                                     OUT:
          ----                                     ----
             STORAGE =      790712.7500               STORAGE =           0.0000
       CONSTANT HEAD =           0.0000         CONSTANT HEAD =           0.0000
               WELLS =       86606.1797                 WELLS =         509.4487
       RIVER LEAKAGE =     7519174.0000         RIVER LEAKAGE =       55166.9492
            RECHARGE =           0.0000              RECHARGE =           0.0000

           TOTAL OUT =     8396493.0000             TOTAL OUT =       55676.3984

            IN - OUT =         496.0000              IN - OUT =           8.9219

 PERCENT DISCREPANCY =           0.01     PERCENT DISCREPANCY =           0.02






         TIME SUMMARY AT END OF TIME STEP   69 IN STRESS PERIOD    3
                    SECONDS     MINUTES      HOURS       DAYS        YEARS
                    -----------------------------------------------------------
   TIME STEP LENGTH  86400.      1440.0      24.000      1.0000     2.73785E-03
 STRESS PERIOD TIME 5.96160E+06  99360.      1656.0      69.000     0.18891    
         TOTAL TIME 1.46880E+07 2.44800E+05  4080.0      170.00     0.46543    
1

 SOLVING FOR HEAD 

    ------------------------------------------------
       NWT REQUIRED            3 OUTER ITERATIONS 
       AND A TOTAL OF          3 INNER ITERATIONS.
    ------------------------------------------------

 OUTPUT CONTROL FOR STRESS PERIOD    3   TIME STEP   70
    SAVE HEAD FOR ALL LAYERS
    SAVE DRAWDOWN FOR ALL LAYERS
    SAVE BUDGET
    PRINT HEAD FOR ALL LAYERS
    PRINT BUDGET
1
              HEAD IN LAYER   1 AT END OF TIME STEP  70 IN STRESS PERIOD    3
  ---------------------------------------------------------------------------

            1           2           3           4           5           6           7           8           9          10
           11          12          13          14          15          16          17          18          19          20
 ........................................................................................................................
   1    0.000       0.000       0.000       0.000       0.000       10.57       10.42       10.86       11.54       11.47    
        10.23       7.353       2.157     -0.5314       5.785       21.61       31.96       37.50       0.000       0.000    
   2    0.000       0.000       0.000       0.000       8.371       7.946       7.145       7.837       9.338       9.619    
        8.751       6.571       2.527     -0.6709       8.373       23.36       33.66       39.56       0.000       0.000    
   3    0.000       0.000       0.000       6.338       6.007       4.020       3.154       3.750       5.217       5.773    
        5.426       4.394       2.772      -1.012       14.16       26.14       37.10       43.82       0.000       0.000    
   4    0.000       0.000       3.598       3.914       2.665     -0.8487     -0.4980     -0.6634     -0.9957     -0.9196    
      -0.8802     -0.6217       1.279      -1.108       19.09       32.41       42.15       50.78       0.000       0.000    
   5    0.000       0.000      0.2965     -0.1553      -1.214     -0.4199       4.915       8.272       11.44       12.11    
        9.931     -0.4189      -1.091      0.2744       26.10       39.70       53.41       64.48       75.41       0.000    
   6    0.000      -1.122      -1.322     -0.8697       1.912       10.75       16.10       19.76       22.37       23.92    
        23.66       21.57       22.96       28.14       41.01       53.46       67.82       72.91       77.86       0.000    
   7    0.000       9.771       11.34       13.21       16.35       21.40       25.80       29.20       31.23       34.22    
        35.83       37.08       40.08       45.62       54.91       65.16       74.20       80.25       0.000       0.000    
   8    0.000       16.05       20.35       22.99       26.01       29.81       33.58       36.93       39.78       42.70    
        45.30       48.08       51.98       57.58       65.05       73.22       80.71       88.80       0.000       0.000    
   9    0.000       0.000       28.11       29.78       32.35       35.55       38.96       42.26       45.40       48.52    
        51.66       55.15       59.50       65.02       71.71       79.04       86.49       94.46       102.3       107.2    
  10    0.000       0.000       31.86       33.21       35.52       38.46       41.69       44.96       48.19       51.43    
        54.82       58.60       63.12       68.60       75.00       81.99       89.21       96.45       102.8       106.5    

 HEAD WILL BE SAVED ON UNIT   51 AT END OF TIME STEP   70, STRESS PERIOD    3

 DRAWDOWN WILL BE SAVED ON UNIT   52 AT END OF TIME STEP   70, STRESS PERIOD    3
1
  VOLUMETRIC BUDGET FOR ENTIRE MODEL AT END OF TIME STEP   70, STRESS PERIOD   3
  ------------------------------------------------------------------------------

     CUMULATIVE VOLUMES      L**3       RATES FOR THIS TIME STEP      L**3/T
     ------------------                 ------------------------

           IN:                                      IN:
           ---                                      ---
             STORAGE =     3680548.0000               STORAGE =       35141.2461
       CONSTANT HEAD =           0.0000         CONSTANT HEAD =           0.0000
               WELLS =           0.0000                 WELLS =           0.0000
       RIVER LEAKAGE =           0.0000         RIVER LEAKAGE =           0.0000
            RECHARGE =     4771844.5000              RECHARGE =       20261.7871

            TOTAL IN =     8452392.0000              TOTAL IN =       55403.0312

          OUT:                                     OUT:
          ----                                     ----
             STORAGE =      790712.7500               STORAGE =           0.0000
       CONSTANT HEAD =           0.0000         CONSTANT HEAD =           0.0000
               WELLS =       87115.6250                 WELLS =         509.4487
       RIVER LEAKAGE =     7574058.5000         RIVER LEAKAGE =       54884.7344
            RECHARGE =           0.0000              RECHARGE =           0.0000

           TOTAL OUT =     8451887.0000             TOTAL OUT =       55394.1836

            IN - OUT =         505.0000              IN - OUT =           8.8477

 PERCENT DISCREPANCY =           0.01     PERCENT DISCREPANCY =           0.02






         TIME SUMMARY AT END OF TIME STEP   70 IN STRESS PERIOD    3
                    SECONDS     MINUTES      HOURS       DAYS        YEARS
                    -----------------------------------------------------------
   TIME STEP LENGTH  86400.      1440.0      24.000      1.0000     2.73785E-03
 STRESS PERIOD TIME 6.04800E+06 1.00800E+05  1680.0      70.000     0.19165    
         TOTAL TIME 1.47744E+07 2.46240E+05  4104.0      171.00     0.46817    
1

 SOLVING FOR HEAD 

    ------------------------------------------------
       NWT REQUIRED            3 OUTER ITERATIONS 
       AND A TOTAL OF          3 INNER ITERATIONS.
    ------------------------------------------------

 OUTPUT CONTROL FOR STRESS PERIOD    3   TIME STEP   71
    SAVE HEAD FOR ALL LAYERS
    SAVE DRAWDOWN FOR ALL LAYERS
    SAVE BUDGET
    PRINT HEAD FOR ALL LAYERS
    PRINT BUDGET
1
              HEAD IN LAYER   1 AT END OF TIME STEP  71 IN STRESS PERIOD    3
  ---------------------------------------------------------------------------

            1           2           3           4           5           6           7           8           9          10
           11          12          13          14          15          16          17          18          19          20
 ........................................................................................................................
   1    0.000       0.000       0.000       0.000       0.000       10.57       10.42       10.86       11.54       11.47    
        10.23       7.352       2.155     -0.5352       5.783       21.61       31.96       37.50       0.000       0.000    
   2    0.000       0.000       0.000       0.000       8.370       7.945       7.144       7.837       9.337       9.619    
        8.750       6.570       2.525     -0.6755       8.371       23.36       33.66       39.56       0.000       0.000    
   3    0.000       0.000       0.000       6.337       6.006       4.018       3.152       3.748       5.215       5.772    
        5.424       4.393       2.770      -1.018       14.16       26.14       37.10       43.82       0.000       0.000    
   4    0.000       0.000       3.597       3.913       2.663     -0.8538     -0.5023     -0.6684      -1.001     -0.9253    
      -0.8857     -0.6257       1.276      -1.114       19.09       32.41       42.15       50.78       0.000       0.000    
   5    0.000       0.000      0.2918     -0.1575      -1.220     -0.4243       4.913       8.270       11.44       12.11    
        9.929     -0.4235      -1.097      0.2712       26.10       39.70       53.41       64.48       75.41       0.000    
   6    0.000      -1.127      -1.328     -0.8753       1.907       10.75       16.10       19.76       22.37       23.92    
        23.66       21.56       22.96       28.13       41.01       53.46       67.82       72.90       77.86       0.000    
   7    0.000       9.769       11.34       13.21       16.35       21.40       25.80       29.20       31.23       34.22    
        35.83       37.08       40.08       45.62       54.91       65.16       74.20       80.25       0.000       0.000    
   8    0.000       16.04       20.35       22.99       26.01       29.81       33.58       36.93       39.78       42.70    
        45.30       48.08       51.98       57.58       65.05       73.22       80.71       88.80       0.000       0.000    
   9    0.000       0.000       28.11       29.78       32.35       35.55       38.96       42.26       45.40       48.52    
        51.66       55.15       59.50       65.02       71.71       79.04       86.49       94.46       102.3       107.2    
  10    0.000       0.000       31.86       33.21       35.52       38.46       41.69       44.96       48.19       51.43    
        54.82       58.60       63.12       68.60       75.00       81.99       89.21       96.45       102.8       106.5    

 HEAD WILL BE SAVED ON UNIT   51 AT END OF TIME STEP   71, STRESS PERIOD    3

 DRAWDOWN WILL BE SAVED ON UNIT   52 AT END OF TIME STEP   71, STRESS PERIOD    3
1
  VOLUMETRIC BUDGET FOR ENTIRE MODEL AT END OF TIME STEP   71, STRESS PERIOD   3
  ------------------------------------------------------------------------------

     CUMULATIVE VOLUMES      L**3       RATES FOR THIS TIME STEP      L**3/T
     ------------------                 ------------------------

           IN:                                      IN:
           ---                                      ---
             STORAGE =     3715410.0000               STORAGE =       34862.1094
       CONSTANT HEAD =           0.0000         CONSTANT HEAD =           0.0000
               WELLS =           0.0000                 WELLS =           0.0000
       RIVER LEAKAGE =           0.0000         RIVER LEAKAGE =           0.0000
            RECHARGE =     4792106.5000              RECHARGE =       20261.7871

            TOTAL IN =     8507516.0000              TOTAL IN =       55123.8984

          OUT:                                     OUT:
          ----                                     ----
             STORAGE =      790712.7500               STORAGE =           0.0000
       CONSTANT HEAD =           0.0000         CONSTANT HEAD =           0.0000
               WELLS =       87625.0703                 WELLS =         509.4487
       RIVER LEAKAGE =     7628664.0000         RIVER LEAKAGE =       54605.6680
            RECHARGE =           0.0000              RECHARGE =           0.0000

           TOTAL OUT =     8507002.0000             TOTAL OUT =       55115.1172

            IN - OUT =         514.0000              IN - OUT =           8.7812

 PERCENT DISCREPANCY =           0.01     PERCENT DISCREPANCY =           0.02






         TIME SUMMARY AT END OF TIME STEP   71 IN STRESS PERIOD    3
                    SECONDS     MINUTES      HOURS       DAYS        YEARS
                    -----------------------------------------------------------
   TIME STEP LENGTH  86400.      1440.0      24.000      1.0000     2.73785E-03
 STRESS PERIOD TIME 6.13440E+06 1.02240E+05  1704.0      71.000     0.19439    
         TOTAL TIME 1.48608E+07 2.47680E+05  4128.0      172.00     0.47091    
1

 SOLVING FOR HEAD 

    ------------------------------------------------
       NWT REQUIRED            3 OUTER ITERATIONS 
       AND A TOTAL OF          3 INNER ITERATIONS.
    ------------------------------------------------

 OUTPUT CONTROL FOR STRESS PERIOD    3   TIME STEP   72
    SAVE HEAD FOR ALL LAYERS
    SAVE DRAWDOWN FOR ALL LAYERS
    SAVE BUDGET
    PRINT HEAD FOR ALL LAYERS
    PRINT BUDGET
1
              HEAD IN LAYER   1 AT END OF TIME STEP  72 IN STRESS PERIOD    3
  ---------------------------------------------------------------------------

            1           2           3           4           5           6           7           8           9          10
           11          12          13          14          15          16          17          18          19          20
 ........................................................................................................................
   1    0.000       0.000       0.000       0.000       0.000       10.57       10.42       10.86       11.54       11.47    
        10.23       7.352       2.153     -0.5390       5.781       21.61       31.96       37.50       0.000       0.000    
   2    0.000       0.000       0.000       0.000       8.370       7.944       7.143       7.836       9.337       9.618    
        8.749       6.569       2.523     -0.6801       8.369       23.36       33.66       39.56       0.000       0.000    
   3    0.000       0.000       0.000       6.337       6.005       4.016       3.150       3.746       5.213       5.770    
        5.423       4.392       2.768      -1.023       14.16       26.14       37.10       43.82       0.000       0.000    
   4    0.000       0.000       3.596       3.912       2.660     -0.8588     -0.5065     -0.6734      -1.007     -0.9309    
      -0.8912     -0.6297       1.273      -1.119       19.09       32.41       42.15       50.78       0.000       0.000    
   5    0.000       0.000      0.2871     -0.1597      -1.226     -0.4287       4.911       8.268       11.44       12.11    
        9.927     -0.4281      -1.103      0.2681       26.10       39.70       53.41       64.48       75.41       0.000    
   6    0.000      -1.133      -1.333     -0.8808       1.901       10.75       16.10       19.76       22.37       23.92    
        23.66       21.56       22.96       28.13       41.01       53.46       67.82       72.90       77.86       0.000    
   7    0.000       9.767       11.34       13.21       16.35       21.40       25.80       29.20       31.23       34.22    
        35.83       37.08       40.08       45.62       54.91       65.16       74.20       80.25       0.000       0.000    
   8    0.000       16.04       20.35       22.99       26.01       29.81       33.58       36.93       39.78       42.70    
        45.30       48.08       51.98       57.58       65.05       73.22       80.71       88.80       0.000       0.000    
   9    0.000       0.000       28.11       29.78       32.35       35.55       38.96       42.26       45.40       48.51    
        51.66       55.15       59.50       65.02       71.71       79.04       86.49       94.46       102.3       107.2    
  10    0.000       0.000       31.86       33.21       35.52       38.46       41.69       44.96       48.19       51.43    
        54.82       58.60       63.12       68.60       75.00       81.99       89.21       96.45       102.8       106.5    

 HEAD WILL BE SAVED ON UNIT   51 AT END OF TIME STEP   72, STRESS PERIOD    3

 DRAWDOWN WILL BE SAVED ON UNIT   52 AT END OF TIME STEP   72, STRESS PERIOD    3
1
  VOLUMETRIC BUDGET FOR ENTIRE MODEL AT END OF TIME STEP   72, STRESS PERIOD   3
  ------------------------------------------------------------------------------

     CUMULATIVE VOLUMES      L**3       RATES FOR THIS TIME STEP      L**3/T
     ------------------                 ------------------------

           IN:                                      IN:
           ---                                      ---
             STORAGE =     3749996.0000               STORAGE =       34586.0859
       CONSTANT HEAD =           0.0000         CONSTANT HEAD =           0.0000
               WELLS =           0.0000                 WELLS =           0.0000
       RIVER LEAKAGE =           0.0000         RIVER LEAKAGE =           0.0000
            RECHARGE =     4812368.5000              RECHARGE =       20261.7871

            TOTAL IN =     8562364.0000              TOTAL IN =       54847.8750

          OUT:                                     OUT:
          ----                                     ----
             STORAGE =      790712.7500               STORAGE =           0.0000
       CONSTANT HEAD =           0.0000         CONSTANT HEAD =           0.0000
               WELLS =       88134.5156                 WELLS =         509.4487
       RIVER LEAKAGE =     7682993.5000         RIVER LEAKAGE =       54329.7148
            RECHARGE =           0.0000              RECHARGE =           0.0000

           TOTAL OUT =     8561841.0000             TOTAL OUT =       54839.1641

            IN - OUT =         523.0000              IN - OUT =           8.7109

 PERCENT DISCREPANCY =           0.01     PERCENT DISCREPANCY =           0.02






         TIME SUMMARY AT END OF TIME STEP   72 IN STRESS PERIOD    3
                    SECONDS     MINUTES      HOURS       DAYS        YEARS
                    -----------------------------------------------------------
   TIME STEP LENGTH  86400.      1440.0      24.000      1.0000     2.73785E-03
 STRESS PERIOD TIME 6.22080E+06 1.03680E+05  1728.0      72.000     0.19713    
         TOTAL TIME 1.49472E+07 2.49120E+05  4152.0      173.00     0.47365    
1

 SOLVING FOR HEAD 

    ------------------------------------------------
       NWT REQUIRED            3 OUTER ITERATIONS 
       AND A TOTAL OF          3 INNER ITERATIONS.
    ------------------------------------------------

 OUTPUT CONTROL FOR STRESS PERIOD    3   TIME STEP   73
    SAVE HEAD FOR ALL LAYERS
    SAVE DRAWDOWN FOR ALL LAYERS
    SAVE BUDGET
    PRINT HEAD FOR ALL LAYERS
    PRINT BUDGET
1
              HEAD IN LAYER   1 AT END OF TIME STEP  73 IN STRESS PERIOD    3
  ---------------------------------------------------------------------------

            1           2           3           4           5           6           7           8           9          10
           11          12          13          14          15          16          17          18          19          20
 ........................................................................................................................
   1    0.000       0.000       0.000       0.000       0.000       10.56       10.42       10.86       11.54       11.47    
        10.23       7.351       2.151     -0.5428       5.779       21.61       31.96       37.50       0.000       0.000    
   2    0.000       0.000       0.000       0.000       8.369       7.944       7.142       7.835       9.336       9.617    
        8.749       6.568       2.521     -0.6847       8.367       23.36       33.66       39.56       0.000       0.000    
   3    0.000       0.000       0.000       6.336       6.004       4.014       3.147       3.744       5.212       5.769    
        5.421       4.391       2.767      -1.029       14.16       26.13       37.10       43.82       0.000       0.000    
   4    0.000       0.000       3.595       3.911       2.658     -0.8638     -0.5107     -0.6784      -1.013     -0.9365    
      -0.8966     -0.6337       1.270      -1.125       19.09       32.41       42.15       50.78       0.000       0.000    
   5    0.000       0.000      0.2825     -0.1619      -1.231     -0.4330       4.909       8.266       11.43       12.11    
        9.925     -0.4326      -1.108      0.2651       26.10       39.70       53.41       64.48       75.40       0.000    
   6    0.000      -1.139      -1.339     -0.8863       1.896       10.75       16.10       19.76       22.37       23.92    
        23.66       21.56       22.96       28.13       41.00       53.46       67.82       72.90       77.86       0.000    
   7    0.000       9.766       11.34       13.21       16.34       21.39       25.80       29.20       31.23       34.22    
        35.83       37.08       40.07       45.62       54.91       65.16       74.20       80.25       0.000       0.000    
   8    0.000       16.04       20.35       22.99       26.01       29.81       33.58       36.93       39.78       42.70    
        45.30       48.08       51.98       57.58       65.05       73.22       80.71       88.80       0.000       0.000    
   9    0.000       0.000       28.11       29.78       32.35       35.55       38.95       42.26       45.40       48.51    
        51.66       55.15       59.50       65.02       71.71       79.04       86.49       94.46       102.3       107.2    
  10    0.000       0.000       31.86       33.21       35.52       38.46       41.69       44.96       48.19       51.43    
        54.81       58.60       63.12       68.60       75.00       81.99       89.21       96.45       102.8       106.5    

 HEAD WILL BE SAVED ON UNIT   51 AT END OF TIME STEP   73, STRESS PERIOD    3

 DRAWDOWN WILL BE SAVED ON UNIT   52 AT END OF TIME STEP   73, STRESS PERIOD    3
1
  VOLUMETRIC BUDGET FOR ENTIRE MODEL AT END OF TIME STEP   73, STRESS PERIOD   3
  ------------------------------------------------------------------------------

     CUMULATIVE VOLUMES      L**3       RATES FOR THIS TIME STEP      L**3/T
     ------------------                 ------------------------

           IN:                                      IN:
           ---                                      ---
             STORAGE =     3784309.2500               STORAGE =       34313.1367
       CONSTANT HEAD =           0.0000         CONSTANT HEAD =           0.0000
               WELLS =           0.0000                 WELLS =           0.0000
       RIVER LEAKAGE =           0.0000         RIVER LEAKAGE =           0.0000
            RECHARGE =     4832630.5000              RECHARGE =       20261.7871

            TOTAL IN =     8616940.0000              TOTAL IN =       54574.9219

          OUT:                                     OUT:
          ----                                     ----
             STORAGE =      790712.7500               STORAGE =           0.0000
       CONSTANT HEAD =           0.0000         CONSTANT HEAD =           0.0000
               WELLS =       88643.9609                 WELLS =         509.4487
       RIVER LEAKAGE =     7737050.5000         RIVER LEAKAGE =       54056.8320
            RECHARGE =           0.0000              RECHARGE =           0.0000

           TOTAL OUT =     8616407.0000             TOTAL OUT =       54566.2812

            IN - OUT =         533.0000              IN - OUT =           8.6406

 PERCENT DISCREPANCY =           0.01     PERCENT DISCREPANCY =           0.02






         TIME SUMMARY AT END OF TIME STEP   73 IN STRESS PERIOD    3
                    SECONDS     MINUTES      HOURS       DAYS        YEARS
                    -----------------------------------------------------------
   TIME STEP LENGTH  86400.      1440.0      24.000      1.0000     2.73785E-03
 STRESS PERIOD TIME 6.30720E+06 1.05120E+05  1752.0      73.000     0.19986    
         TOTAL TIME 1.50336E+07 2.50560E+05  4176.0      174.00     0.47639    
1

 SOLVING FOR HEAD 

    ------------------------------------------------
       NWT REQUIRED            3 OUTER ITERATIONS 
       AND A TOTAL OF          3 INNER ITERATIONS.
    ------------------------------------------------

 OUTPUT CONTROL FOR STRESS PERIOD    3   TIME STEP   74
    SAVE HEAD FOR ALL LAYERS
    SAVE DRAWDOWN FOR ALL LAYERS
    SAVE BUDGET
    PRINT HEAD FOR ALL LAYERS
    PRINT BUDGET
1
              HEAD IN LAYER   1 AT END OF TIME STEP  74 IN STRESS PERIOD    3
  ---------------------------------------------------------------------------

            1           2           3           4           5           6           7           8           9          10
           11          12          13          14          15          16          17          18          19          20
 ........................................................................................................................
   1    0.000       0.000       0.000       0.000       0.000       10.56       10.42       10.85       11.54       11.47    
        10.23       7.350       2.149     -0.5465       5.777       21.60       31.96       37.50       0.000       0.000    
   2    0.000       0.000       0.000       0.000       8.368       7.943       7.141       7.834       9.335       9.617    
        8.748       6.568       2.519     -0.6893       8.365       23.36       33.66       39.56       0.000       0.000    
   3    0.000       0.000       0.000       6.335       6.003       4.012       3.145       3.741       5.210       5.767    
        5.420       4.390       2.765      -1.034       14.16       26.13       37.10       43.82       0.000       0.000    
   4    0.000       0.000       3.593       3.910       2.656     -0.8688     -0.5149     -0.6833      -1.018     -0.9420    
      -0.9020     -0.6377       1.267      -1.131       19.08       32.41       42.15       50.78       0.000       0.000    
   5    0.000       0.000      0.2779     -0.1641      -1.237     -0.4374       4.906       8.264       11.43       12.11    
        9.923     -0.4372      -1.114      0.2621       26.10       39.70       53.41       64.48       75.40       0.000    
   6    0.000      -1.145      -1.344     -0.8917       1.891       10.74       16.10       19.76       22.37       23.92    
        23.66       21.56       22.96       28.13       41.00       53.46       67.82       72.90       77.86       0.000    
   7    0.000       9.764       11.34       13.21       16.34       21.39       25.80       29.20       31.23       34.22    
        35.83       37.08       40.07       45.62       54.91       65.15       74.20       80.25       0.000       0.000    
   8    0.000       16.04       20.35       22.99       26.01       29.81       33.58       36.93       39.78       42.70    
        45.30       48.08       51.98       57.58       65.05       73.22       80.71       88.80       0.000       0.000    
   9    0.000       0.000       28.11       29.78       32.35       35.55       38.95       42.26       45.39       48.51    
        51.66       55.15       59.50       65.02       71.71       79.04       86.49       94.45       102.3       107.2    
  10    0.000       0.000       31.86       33.21       35.52       38.46       41.69       44.96       48.19       51.43    
        54.81       58.60       63.12       68.60       74.99       81.99       89.21       96.45       102.8       106.5    

 HEAD WILL BE SAVED ON UNIT   51 AT END OF TIME STEP   74, STRESS PERIOD    3

 DRAWDOWN WILL BE SAVED ON UNIT   52 AT END OF TIME STEP   74, STRESS PERIOD    3
1
  VOLUMETRIC BUDGET FOR ENTIRE MODEL AT END OF TIME STEP   74, STRESS PERIOD   3
  ------------------------------------------------------------------------------

     CUMULATIVE VOLUMES      L**3       RATES FOR THIS TIME STEP      L**3/T
     ------------------                 ------------------------

           IN:                                      IN:
           ---                                      ---
             STORAGE =     3818352.5000               STORAGE =       34043.2148
       CONSTANT HEAD =           0.0000         CONSTANT HEAD =           0.0000
               WELLS =           0.0000                 WELLS =           0.0000
       RIVER LEAKAGE =           0.0000         RIVER LEAKAGE =           0.0000
            RECHARGE =     4852892.5000              RECHARGE =       20261.7871

            TOTAL IN =     8671245.0000              TOTAL IN =       54305.0000

          OUT:                                     OUT:
          ----                                     ----
             STORAGE =      790712.7500               STORAGE =           0.0000
       CONSTANT HEAD =           0.0000         CONSTANT HEAD =           0.0000
               WELLS =       89153.4062                 WELLS =         509.4487
       RIVER LEAKAGE =     7790837.5000         RIVER LEAKAGE =       53786.9805
            RECHARGE =           0.0000              RECHARGE =           0.0000

           TOTAL OUT =     8670704.0000             TOTAL OUT =       54296.4297

            IN - OUT =         541.0000              IN - OUT =           8.5703

 PERCENT DISCREPANCY =           0.01     PERCENT DISCREPANCY =           0.02






         TIME SUMMARY AT END OF TIME STEP   74 IN STRESS PERIOD    3
                    SECONDS     MINUTES      HOURS       DAYS        YEARS
                    -----------------------------------------------------------
   TIME STEP LENGTH  86400.      1440.0      24.000      1.0000     2.73785E-03
 STRESS PERIOD TIME 6.39360E+06 1.06560E+05  1776.0      74.000     0.20260    
         TOTAL TIME 1.51200E+07 2.52000E+05  4200.0      175.00     0.47912    
1

 SOLVING FOR HEAD 

    ------------------------------------------------
       NWT REQUIRED            3 OUTER ITERATIONS 
       AND A TOTAL OF          3 INNER ITERATIONS.
    ------------------------------------------------

 OUTPUT CONTROL FOR STRESS PERIOD    3   TIME STEP   75
    SAVE HEAD FOR ALL LAYERS
    SAVE DRAWDOWN FOR ALL LAYERS
    SAVE BUDGET
    PRINT HEAD FOR ALL LAYERS
    PRINT BUDGET
1
              HEAD IN LAYER   1 AT END OF TIME STEP  75 IN STRESS PERIOD    3
  ---------------------------------------------------------------------------

            1           2           3           4           5           6           7           8           9          10
           11          12          13          14          15          16          17          18          19          20
 ........................................................................................................................
   1    0.000       0.000       0.000       0.000       0.000       10.56       10.42       10.85       11.54       11.47    
        10.23       7.349       2.147     -0.5503       5.775       21.60       31.96       37.50       0.000       0.000    
   2    0.000       0.000       0.000       0.000       8.368       7.942       7.141       7.833       9.334       9.616    
        8.747       6.567       2.517     -0.6938       8.364       23.36       33.66       39.56       0.000       0.000    
   3    0.000       0.000       0.000       6.335       6.003       4.010       3.143       3.739       5.209       5.766    
        5.419       4.388       2.764      -1.040       14.16       26.13       37.10       43.82       0.000       0.000    
   4    0.000       0.000       3.592       3.909       2.653     -0.8737     -0.5190     -0.6881      -1.024     -0.9474    
      -0.9073     -0.6417       1.265      -1.136       19.08       32.41       42.15       50.78       0.000       0.000    
   5    0.000       0.000      0.2733     -0.1663      -1.242     -0.4417       4.904       8.262       11.43       12.11    
        9.921     -0.4416      -1.119      0.2593       26.09       39.70       53.41       64.48       75.40       0.000    
   6    0.000      -1.150      -1.349     -0.8971       1.886       10.74       16.10       19.76       22.37       23.92    
        23.66       21.56       22.96       28.13       41.00       53.46       67.82       72.90       77.86       0.000    
   7    0.000       9.762       11.33       13.20       16.34       21.39       25.80       29.20       31.23       34.22    
        35.83       37.08       40.07       45.62       54.91       65.15       74.20       80.25       0.000       0.000    
   8    0.000       16.04       20.35       22.98       26.01       29.80       33.58       36.93       39.78       42.70    
        45.30       48.08       51.98       57.58       65.04       73.22       80.71       88.80       0.000       0.000    
   9    0.000       0.000       28.11       29.78       32.35       35.55       38.95       42.26       45.39       48.51    
        51.66       55.15       59.50       65.02       71.71       79.04       86.48       94.45       102.3       107.2    
  10    0.000       0.000       31.86       33.21       35.52       38.46       41.69       44.96       48.19       51.43    
        54.81       58.60       63.12       68.60       74.99       81.99       89.21       96.45       102.8       106.5    

 HEAD WILL BE SAVED ON UNIT   51 AT END OF TIME STEP   75, STRESS PERIOD    3

 DRAWDOWN WILL BE SAVED ON UNIT   52 AT END OF TIME STEP   75, STRESS PERIOD    3
1
  VOLUMETRIC BUDGET FOR ENTIRE MODEL AT END OF TIME STEP   75, STRESS PERIOD   3
  ------------------------------------------------------------------------------

     CUMULATIVE VOLUMES      L**3       RATES FOR THIS TIME STEP      L**3/T
     ------------------                 ------------------------

           IN:                                      IN:
           ---                                      ---
             STORAGE =     3852128.7500               STORAGE =       33776.2812
       CONSTANT HEAD =           0.0000         CONSTANT HEAD =           0.0000
               WELLS =           0.0000                 WELLS =           0.0000
       RIVER LEAKAGE =           0.0000         RIVER LEAKAGE =           0.0000
            RECHARGE =     4873154.5000              RECHARGE =       20261.7871

            TOTAL IN =     8725283.0000              TOTAL IN =       54038.0703

          OUT:                                     OUT:
          ----                                     ----
             STORAGE =      790712.7500               STORAGE =           0.0000
       CONSTANT HEAD =           0.0000         CONSTANT HEAD =           0.0000
               WELLS =       89662.8516                 WELLS =         509.4487
       RIVER LEAKAGE =     7844357.5000         RIVER LEAKAGE =       53520.1172
            RECHARGE =           0.0000              RECHARGE =           0.0000

           TOTAL OUT =     8724733.0000             TOTAL OUT =       54029.5664

            IN - OUT =         550.0000              IN - OUT =           8.5039

 PERCENT DISCREPANCY =           0.01     PERCENT DISCREPANCY =           0.02






         TIME SUMMARY AT END OF TIME STEP   75 IN STRESS PERIOD    3
                    SECONDS     MINUTES      HOURS       DAYS        YEARS
                    -----------------------------------------------------------
   TIME STEP LENGTH  86400.      1440.0      24.000      1.0000     2.73785E-03
 STRESS PERIOD TIME 6.48000E+06 1.08000E+05  1800.0      75.000     0.20534    
         TOTAL TIME 1.52064E+07 2.53440E+05  4224.0      176.00     0.48186    
1

 SOLVING FOR HEAD 

    ------------------------------------------------
       NWT REQUIRED            3 OUTER ITERATIONS 
       AND A TOTAL OF          3 INNER ITERATIONS.
    ------------------------------------------------

 OUTPUT CONTROL FOR STRESS PERIOD    3   TIME STEP   76
    SAVE HEAD FOR ALL LAYERS
    SAVE DRAWDOWN FOR ALL LAYERS
    SAVE BUDGET
    PRINT HEAD FOR ALL LAYERS
    PRINT BUDGET
1
              HEAD IN LAYER   1 AT END OF TIME STEP  76 IN STRESS PERIOD    3
  ---------------------------------------------------------------------------

            1           2           3           4           5           6           7           8           9          10
           11          12          13          14          15          16          17          18          19          20
 ........................................................................................................................
   1    0.000       0.000       0.000       0.000       0.000       10.56       10.42       10.85       11.54       11.47    
        10.22       7.349       2.145     -0.5540       5.773       21.60       31.96       37.50       0.000       0.000    
   2    0.000       0.000       0.000       0.000       8.367       7.941       7.140       7.833       9.334       9.615    
        8.747       6.566       2.515     -0.6983       8.362       23.36       33.66       39.56       0.000       0.000    
   3    0.000       0.000       0.000       6.334       6.002       4.008       3.140       3.737       5.207       5.764    
        5.417       4.387       2.762      -1.045       14.16       26.13       37.10       43.82       0.000       0.000    
   4    0.000       0.000       3.591       3.908       2.651     -0.8786     -0.5232     -0.6930      -1.029     -0.9528    
      -0.9125     -0.6456       1.262      -1.142       19.08       32.40       42.15       50.78       0.000       0.000    
   5    0.000       0.000      0.2688     -0.1685      -1.248     -0.4460       4.902       8.261       11.43       12.10    
        9.919     -0.4461      -1.125      0.2566       26.09       39.70       53.41       64.48       75.40       0.000    
   6    0.000      -1.156      -1.355     -0.9024       1.881       10.74       16.10       19.75       22.37       23.92    
        23.66       21.56       22.95       28.12       41.00       53.46       67.82       72.90       77.86       0.000    
   7    0.000       9.761       11.33       13.20       16.34       21.39       25.80       29.20       31.22       34.22    
        35.83       37.08       40.07       45.62       54.90       65.15       74.20       80.25       0.000       0.000    
   8    0.000       16.04       20.35       22.98       26.01       29.80       33.57       36.93       39.78       42.70    
        45.30       48.08       51.98       57.58       65.04       73.22       80.71       88.80       0.000       0.000    
   9    0.000       0.000       28.11       29.78       32.35       35.55       38.95       42.26       45.39       48.51    
        51.65       55.15       59.49       65.02       71.71       79.04       86.48       94.45       102.3       107.2    
  10    0.000       0.000       31.86       33.21       35.52       38.46       41.69       44.96       48.18       51.43    
        54.81       58.60       63.12       68.60       74.99       81.99       89.21       96.45       102.8       106.5    

 HEAD WILL BE SAVED ON UNIT   51 AT END OF TIME STEP   76, STRESS PERIOD    3

 DRAWDOWN WILL BE SAVED ON UNIT   52 AT END OF TIME STEP   76, STRESS PERIOD    3
1
  VOLUMETRIC BUDGET FOR ENTIRE MODEL AT END OF TIME STEP   76, STRESS PERIOD   3
  ------------------------------------------------------------------------------

     CUMULATIVE VOLUMES      L**3       RATES FOR THIS TIME STEP      L**3/T
     ------------------                 ------------------------

           IN:                                      IN:
           ---                                      ---
             STORAGE =     3885641.0000               STORAGE =       33512.3008
       CONSTANT HEAD =           0.0000         CONSTANT HEAD =           0.0000
               WELLS =           0.0000                 WELLS =           0.0000
       RIVER LEAKAGE =           0.0000         RIVER LEAKAGE =           0.0000
            RECHARGE =     4893416.5000              RECHARGE =       20261.7871

            TOTAL IN =     8779058.0000              TOTAL IN =       53774.0859

          OUT:                                     OUT:
          ----                                     ----
             STORAGE =      790712.7500               STORAGE =           0.0000
       CONSTANT HEAD =           0.0000         CONSTANT HEAD =           0.0000
               WELLS =       90172.2969                 WELLS =         509.4487
       RIVER LEAKAGE =     7897613.5000         RIVER LEAKAGE =       53256.2031
            RECHARGE =           0.0000              RECHARGE =           0.0000

           TOTAL OUT =     8778499.0000             TOTAL OUT =       53765.6523

            IN - OUT =         559.0000              IN - OUT =           8.4336

 PERCENT DISCREPANCY =           0.01     PERCENT DISCREPANCY =           0.02






         TIME SUMMARY AT END OF TIME STEP   76 IN STRESS PERIOD    3
                    SECONDS     MINUTES      HOURS       DAYS        YEARS
                    -----------------------------------------------------------
   TIME STEP LENGTH  86400.      1440.0      24.000      1.0000     2.73785E-03
 STRESS PERIOD TIME 6.56640E+06 1.09440E+05  1824.0      76.000     0.20808    
         TOTAL TIME 1.52928E+07 2.54880E+05  4248.0      177.00     0.48460    
1

 SOLVING FOR HEAD 

    ------------------------------------------------
       NWT REQUIRED            3 OUTER ITERATIONS 
       AND A TOTAL OF          3 INNER ITERATIONS.
    ------------------------------------------------

 OUTPUT CONTROL FOR STRESS PERIOD    3   TIME STEP   77
    SAVE HEAD FOR ALL LAYERS
    SAVE DRAWDOWN FOR ALL LAYERS
    SAVE BUDGET
    PRINT HEAD FOR ALL LAYERS
    PRINT BUDGET
1
              HEAD IN LAYER   1 AT END OF TIME STEP  77 IN STRESS PERIOD    3
  ---------------------------------------------------------------------------

            1           2           3           4           5           6           7           8           9          10
           11          12          13          14          15          16          17          18          19          20
 ........................................................................................................................
   1    0.000       0.000       0.000       0.000       0.000       10.56       10.42       10.85       11.54       11.47    
        10.22       7.348       2.143     -0.5577       5.771       21.60       31.96       37.50       0.000       0.000    
   2    0.000       0.000       0.000       0.000       8.367       7.941       7.139       7.832       9.333       9.615    
        8.746       6.565       2.513     -0.7027       8.360       23.36       33.66       39.56       0.000       0.000    
   3    0.000       0.000       0.000       6.333       6.001       4.006       3.138       3.735       5.205       5.763    
        5.416       4.386       2.760      -1.050       14.15       26.13       37.10       43.82       0.000       0.000    
   4    0.000       0.000       3.590       3.907       2.648     -0.8834     -0.5273     -0.6977      -1.034     -0.9581    
      -0.9177     -0.6495       1.259      -1.147       19.08       32.40       42.15       50.78       0.000       0.000    
   5    0.000       0.000      0.2643     -0.1707      -1.253     -0.4502       4.900       8.259       11.43       12.10    
        9.917     -0.4505      -1.130      0.2539       26.09       39.70       53.41       64.48       75.40       0.000    
   6    0.000      -1.161      -1.360     -0.9077       1.876       10.74       16.10       19.75       22.37       23.92    
        23.66       21.56       22.95       28.12       41.00       53.46       67.82       72.90       77.86       0.000    
   7    0.000       9.759       11.33       13.20       16.34       21.39       25.80       29.20       31.22       34.22    
        35.83       37.08       40.07       45.62       54.90       65.15       74.20       80.25       0.000       0.000    
   8    0.000       16.04       20.35       22.98       26.01       29.80       33.57       36.93       39.78       42.70    
        45.30       48.08       51.98       57.57       65.04       73.22       80.71       88.80       0.000       0.000    
   9    0.000       0.000       28.11       29.78       32.35       35.55       38.95       42.26       45.39       48.51    
        51.65       55.15       59.49       65.02       71.71       79.04       86.48       94.45       102.3       107.2    
  10    0.000       0.000       31.86       33.21       35.52       38.46       41.69       44.96       48.18       51.43    
        54.81       58.60       63.12       68.60       74.99       81.99       89.21       96.45       102.8       106.5    

 HEAD WILL BE SAVED ON UNIT   51 AT END OF TIME STEP   77, STRESS PERIOD    3

 DRAWDOWN WILL BE SAVED ON UNIT   52 AT END OF TIME STEP   77, STRESS PERIOD    3
1
  VOLUMETRIC BUDGET FOR ENTIRE MODEL AT END OF TIME STEP   77, STRESS PERIOD   3
  ------------------------------------------------------------------------------

     CUMULATIVE VOLUMES      L**3       RATES FOR THIS TIME STEP      L**3/T
     ------------------                 ------------------------

           IN:                                      IN:
           ---                                      ---
             STORAGE =     3918892.2500               STORAGE =       33251.2344
       CONSTANT HEAD =           0.0000         CONSTANT HEAD =           0.0000
               WELLS =           0.0000                 WELLS =           0.0000
       RIVER LEAKAGE =           0.0000         RIVER LEAKAGE =           0.0000
            RECHARGE =     4913678.5000              RECHARGE =       20261.7871

            TOTAL IN =     8832571.0000              TOTAL IN =       53513.0234

          OUT:                                     OUT:
          ----                                     ----
             STORAGE =      790712.7500               STORAGE =           0.0000
       CONSTANT HEAD =           0.0000         CONSTANT HEAD =           0.0000
               WELLS =       90681.7422                 WELLS =         509.4487
       RIVER LEAKAGE =     7950608.5000         RIVER LEAKAGE =       52995.1992
            RECHARGE =           0.0000              RECHARGE =           0.0000

           TOTAL OUT =     8832003.0000             TOTAL OUT =       53504.6484

            IN - OUT =         568.0000              IN - OUT =           8.3750

 PERCENT DISCREPANCY =           0.01     PERCENT DISCREPANCY =           0.02






         TIME SUMMARY AT END OF TIME STEP   77 IN STRESS PERIOD    3
                    SECONDS     MINUTES      HOURS       DAYS        YEARS
                    -----------------------------------------------------------
   TIME STEP LENGTH  86400.      1440.0      24.000      1.0000     2.73785E-03
 STRESS PERIOD TIME 6.65280E+06 1.10880E+05  1848.0      77.000     0.21081    
         TOTAL TIME 1.53792E+07 2.56320E+05  4272.0      178.00     0.48734    
1

 SOLVING FOR HEAD 

    ------------------------------------------------
       NWT REQUIRED            3 OUTER ITERATIONS 
       AND A TOTAL OF          3 INNER ITERATIONS.
    ------------------------------------------------

 OUTPUT CONTROL FOR STRESS PERIOD    3   TIME STEP   78
    SAVE HEAD FOR ALL LAYERS
    SAVE DRAWDOWN FOR ALL LAYERS
    SAVE BUDGET
    PRINT HEAD FOR ALL LAYERS
    PRINT BUDGET
1
              HEAD IN LAYER   1 AT END OF TIME STEP  78 IN STRESS PERIOD    3
  ---------------------------------------------------------------------------

            1           2           3           4           5           6           7           8           9          10
           11          12          13          14          15          16          17          18          19          20
 ........................................................................................................................
   1    0.000       0.000       0.000       0.000       0.000       10.56       10.41       10.85       11.54       11.47    
        10.22       7.347       2.141     -0.5614       5.769       21.60       31.96       37.50       0.000       0.000    
   2    0.000       0.000       0.000       0.000       8.366       7.940       7.138       7.831       9.332       9.614    
        8.745       6.565       2.511     -0.7071       8.358       23.36       33.65       39.56       0.000       0.000    
   3    0.000       0.000       0.000       6.333       6.000       4.004       3.136       3.733       5.204       5.761    
        5.414       4.385       2.759      -1.056       14.15       26.13       37.10       43.82       0.000       0.000    
   4    0.000       0.000       3.588       3.906       2.646     -0.8882     -0.5313     -0.7025      -1.040     -0.9634    
      -0.9229     -0.6534       1.256      -1.152       19.08       32.40       42.15       50.78       0.000       0.000    
   5    0.000       0.000      0.2598     -0.1729      -1.259     -0.4545       4.897       8.257       11.43       12.10    
        9.915     -0.4549      -1.135      0.2513       26.09       39.70       53.41       64.48       75.40       0.000    
   6    0.000      -1.167      -1.365     -0.9129       1.871       10.74       16.10       19.75       22.37       23.92    
        23.66       21.55       22.95       28.12       41.00       53.46       67.82       72.90       77.86       0.000    
   7    0.000       9.757       11.33       13.20       16.34       21.39       25.80       29.19       31.22       34.22    
        35.83       37.08       40.07       45.62       54.90       65.15       74.20       80.25       0.000       0.000    
   8    0.000       16.04       20.35       22.98       26.01       29.80       33.57       36.93       39.78       42.70    
        45.30       48.08       51.98       57.57       65.04       73.21       80.71       88.80       0.000       0.000    
   9    0.000       0.000       28.10       29.78       32.35       35.55       38.95       42.26       45.39       48.51    
        51.65       55.15       59.49       65.01       71.71       79.04       86.48       94.45       102.3       107.2    
  10    0.000       0.000       31.86       33.21       35.52       38.46       41.69       44.96       48.18       51.43    
        54.81       58.60       63.12       68.60       74.99       81.99       89.21       96.45       102.8       106.5    

 HEAD WILL BE SAVED ON UNIT   51 AT END OF TIME STEP   78, STRESS PERIOD    3

 DRAWDOWN WILL BE SAVED ON UNIT   52 AT END OF TIME STEP   78, STRESS PERIOD    3
1
  VOLUMETRIC BUDGET FOR ENTIRE MODEL AT END OF TIME STEP   78, STRESS PERIOD   3
  ------------------------------------------------------------------------------

     CUMULATIVE VOLUMES      L**3       RATES FOR THIS TIME STEP      L**3/T
     ------------------                 ------------------------

           IN:                                      IN:
           ---                                      ---
             STORAGE =     3951885.2500               STORAGE =       32993.0430
       CONSTANT HEAD =           0.0000         CONSTANT HEAD =           0.0000
               WELLS =           0.0000                 WELLS =           0.0000
       RIVER LEAKAGE =           0.0000         RIVER LEAKAGE =           0.0000
            RECHARGE =     4933940.5000              RECHARGE =       20261.7871

            TOTAL IN =     8885826.0000              TOTAL IN =       53254.8281

          OUT:                                     OUT:
          ----                                     ----
             STORAGE =      790712.7500               STORAGE =           0.0000
       CONSTANT HEAD =           0.0000         CONSTANT HEAD =           0.0000
               WELLS =       91191.1875                 WELLS =         509.4487
       RIVER LEAKAGE =     8003345.5000         RIVER LEAKAGE =       52737.0742
            RECHARGE =           0.0000              RECHARGE =           0.0000

           TOTAL OUT =     8885249.0000             TOTAL OUT =       53246.5234

            IN - OUT =         577.0000              IN - OUT =           8.3047

 PERCENT DISCREPANCY =           0.01     PERCENT DISCREPANCY =           0.02






         TIME SUMMARY AT END OF TIME STEP   78 IN STRESS PERIOD    3
                    SECONDS     MINUTES      HOURS       DAYS        YEARS
                    -----------------------------------------------------------
   TIME STEP LENGTH  86400.      1440.0      24.000      1.0000     2.73785E-03
 STRESS PERIOD TIME 6.73920E+06 1.12320E+05  1872.0      78.000     0.21355    
         TOTAL TIME 1.54656E+07 2.57760E+05  4296.0      179.00     0.49008    
1

 SOLVING FOR HEAD 

    ------------------------------------------------
       NWT REQUIRED            3 OUTER ITERATIONS 
       AND A TOTAL OF          3 INNER ITERATIONS.
    ------------------------------------------------

 OUTPUT CONTROL FOR STRESS PERIOD    3   TIME STEP   79
    SAVE HEAD FOR ALL LAYERS
    SAVE DRAWDOWN FOR ALL LAYERS
    SAVE BUDGET
    PRINT HEAD FOR ALL LAYERS
    PRINT BUDGET
1
              HEAD IN LAYER   1 AT END OF TIME STEP  79 IN STRESS PERIOD    3
  ---------------------------------------------------------------------------

            1           2           3           4           5           6           7           8           9          10
           11          12          13          14          15          16          17          18          19          20
 ........................................................................................................................
   1    0.000       0.000       0.000       0.000       0.000       10.56       10.41       10.85       11.54       11.47    
        10.22       7.346       2.139     -0.5650       5.767       21.60       31.96       37.50       0.000       0.000    
   2    0.000       0.000       0.000       0.000       8.365       7.939       7.137       7.830       9.332       9.613    
        8.745       6.564       2.510     -0.7115       8.356       23.36       33.65       39.56       0.000       0.000    
   3    0.000       0.000       0.000       6.332       5.999       4.002       3.133       3.730       5.202       5.760    
        5.413       4.383       2.757      -1.061       14.15       26.13       37.10       43.82       0.000       0.000    
   4    0.000       0.000       3.587       3.905       2.644     -0.8929     -0.5354     -0.7072      -1.045     -0.9686    
      -0.9280     -0.6573       1.253      -1.158       19.08       32.40       42.15       50.78       0.000       0.000    
   5    0.000       0.000      0.2554     -0.1751      -1.264     -0.4587       4.895       8.255       11.42       12.10    
        9.913     -0.4592      -1.140      0.2488       26.09       39.70       53.41       64.48       75.40       0.000    
   6    0.000      -1.172      -1.370     -0.9181       1.866       10.74       16.09       19.75       22.37       23.92    
        23.66       21.55       22.95       28.12       41.00       53.46       67.82       72.90       77.85       0.000    
   7    0.000       9.756       11.33       13.20       16.34       21.39       25.80       29.19       31.22       34.22    
        35.83       37.08       40.07       45.62       54.90       65.15       74.20       80.25       0.000       0.000    
   8    0.000       16.04       20.35       22.98       26.00       29.80       33.57       36.93       39.78       42.70    
        45.30       48.08       51.98       57.57       65.04       73.21       80.71       88.80       0.000       0.000    
   9    0.000       0.000       28.10       29.78       32.35       35.55       38.95       42.26       45.39       48.51    
        51.65       55.15       59.49       65.01       71.70       79.04       86.48       94.45       102.3       107.2    
  10    0.000       0.000       31.86       33.21       35.52       38.46       41.69       44.96       48.18       51.43    
        54.81       58.60       63.12       68.60       74.99       81.98       89.21       96.45       102.8       106.5    

 HEAD WILL BE SAVED ON UNIT   51 AT END OF TIME STEP   79, STRESS PERIOD    3

 DRAWDOWN WILL BE SAVED ON UNIT   52 AT END OF TIME STEP   79, STRESS PERIOD    3
1
  VOLUMETRIC BUDGET FOR ENTIRE MODEL AT END OF TIME STEP   79, STRESS PERIOD   3
  ------------------------------------------------------------------------------

     CUMULATIVE VOLUMES      L**3       RATES FOR THIS TIME STEP      L**3/T
     ------------------                 ------------------------

           IN:                                      IN:
           ---                                      ---
             STORAGE =     3984623.0000               STORAGE =       32737.6875
       CONSTANT HEAD =           0.0000         CONSTANT HEAD =           0.0000
               WELLS =           0.0000                 WELLS =           0.0000
       RIVER LEAKAGE =           0.0000         RIVER LEAKAGE =           0.0000
            RECHARGE =     4954202.5000              RECHARGE =       20261.7871

            TOTAL IN =     8938826.0000              TOTAL IN =       52999.4766

          OUT:                                     OUT:
          ----                                     ----
             STORAGE =      790712.7500               STORAGE =           0.0000
       CONSTANT HEAD =           0.0000         CONSTANT HEAD =           0.0000
               WELLS =       91700.6328                 WELLS =         509.4487
       RIVER LEAKAGE =     8055827.5000         RIVER LEAKAGE =       52481.7812
            RECHARGE =           0.0000              RECHARGE =           0.0000

           TOTAL OUT =     8938241.0000             TOTAL OUT =       52991.2305

            IN - OUT =         585.0000              IN - OUT =           8.2461

 PERCENT DISCREPANCY =           0.01     PERCENT DISCREPANCY =           0.02






         TIME SUMMARY AT END OF TIME STEP   79 IN STRESS PERIOD    3
                    SECONDS     MINUTES      HOURS       DAYS        YEARS
                    -----------------------------------------------------------
   TIME STEP LENGTH  86400.      1440.0      24.000      1.0000     2.73785E-03
 STRESS PERIOD TIME 6.82560E+06 1.13760E+05  1896.0      79.000     0.21629    
         TOTAL TIME 1.55520E+07 2.59200E+05  4320.0      180.00     0.49281    
1

 SOLVING FOR HEAD 

    ------------------------------------------------
       NWT REQUIRED            3 OUTER ITERATIONS 
       AND A TOTAL OF          3 INNER ITERATIONS.
    ------------------------------------------------

 OUTPUT CONTROL FOR STRESS PERIOD    3   TIME STEP   80
    SAVE HEAD FOR ALL LAYERS
    SAVE DRAWDOWN FOR ALL LAYERS
    SAVE BUDGET
    PRINT HEAD FOR ALL LAYERS
    PRINT BUDGET
1
              HEAD IN LAYER   1 AT END OF TIME STEP  80 IN STRESS PERIOD    3
  ---------------------------------------------------------------------------

            1           2           3           4           5           6           7           8           9          10
           11          12          13          14          15          16          17          18          19          20
 ........................................................................................................................
   1    0.000       0.000       0.000       0.000       0.000       10.56       10.41       10.85       11.53       11.47    
        10.22       7.346       2.137     -0.5687       5.764       21.60       31.96       37.50       0.000       0.000    
   2    0.000       0.000       0.000       0.000       8.365       7.938       7.136       7.829       9.331       9.613    
        8.744       6.563       2.508     -0.7159       8.354       23.36       33.65       39.55       0.000       0.000    
   3    0.000       0.000       0.000       6.331       5.998       4.000       3.131       3.728       5.200       5.758    
        5.411       4.382       2.755      -1.066       14.15       26.13       37.10       43.81       0.000       0.000    
   4    0.000       0.000       3.586       3.904       2.641     -0.8976     -0.5394     -0.7119      -1.050     -0.9737    
      -0.9331     -0.6611       1.250      -1.163       19.08       32.40       42.15       50.78       0.000       0.000    
   5    0.000       0.000      0.2509     -0.1773      -1.269     -0.4629       4.893       8.253       11.42       12.10    
        9.911     -0.4635      -1.145      0.2464       26.09       39.69       53.41       64.48       75.40       0.000    
   6    0.000      -1.177      -1.375     -0.9232       1.861       10.73       16.09       19.75       22.37       23.92    
        23.65       21.55       22.95       28.12       41.00       53.46       67.82       72.90       77.85       0.000    
   7    0.000       9.754       11.32       13.20       16.33       21.39       25.80       29.19       31.22       34.21    
        35.83       37.08       40.07       45.62       54.90       65.15       74.19       80.25       0.000       0.000    
   8    0.000       16.04       20.35       22.98       26.00       29.80       33.57       36.93       39.78       42.70    
        45.30       48.07       51.98       57.57       65.04       73.21       80.71       88.80       0.000       0.000    
   9    0.000       0.000       28.10       29.78       32.34       35.55       38.95       42.26       45.39       48.51    
        51.65       55.15       59.49       65.01       71.70       79.04       86.48       94.45       102.3       107.2    
  10    0.000       0.000       31.86       33.21       35.52       38.46       41.69       44.96       48.18       51.43    
        54.81       58.60       63.12       68.60       74.99       81.98       89.21       96.44       102.8       106.5    

 HEAD WILL BE SAVED ON UNIT   51 AT END OF TIME STEP   80, STRESS PERIOD    3

 DRAWDOWN WILL BE SAVED ON UNIT   52 AT END OF TIME STEP   80, STRESS PERIOD    3
1
  VOLUMETRIC BUDGET FOR ENTIRE MODEL AT END OF TIME STEP   80, STRESS PERIOD   3
  ------------------------------------------------------------------------------

     CUMULATIVE VOLUMES      L**3       RATES FOR THIS TIME STEP      L**3/T
     ------------------                 ------------------------

           IN:                                      IN:
           ---                                      ---
             STORAGE =     4017108.2500               STORAGE =       32485.1328
       CONSTANT HEAD =           0.0000         CONSTANT HEAD =           0.0000
               WELLS =           0.0000                 WELLS =           0.0000
       RIVER LEAKAGE =           0.0000         RIVER LEAKAGE =           0.0000
            RECHARGE =     4974464.5000              RECHARGE =       20261.7871

            TOTAL IN =     8991573.0000              TOTAL IN =       52746.9219

          OUT:                                     OUT:
          ----                                     ----
             STORAGE =      790712.7500               STORAGE =           0.0000
       CONSTANT HEAD =           0.0000         CONSTANT HEAD =           0.0000
               WELLS =       92210.0781                 WELLS =         509.4487
       RIVER LEAKAGE =     8108057.0000         RIVER LEAKAGE =       52229.2930
            RECHARGE =           0.0000              RECHARGE =           0.0000

           TOTAL OUT =     8990980.0000             TOTAL OUT =       52738.7422

            IN - OUT =         593.0000              IN - OUT =           8.1797

 PERCENT DISCREPANCY =           0.01     PERCENT DISCREPANCY =           0.02






         TIME SUMMARY AT END OF TIME STEP   80 IN STRESS PERIOD    3
                    SECONDS     MINUTES      HOURS       DAYS        YEARS
                    -----------------------------------------------------------
   TIME STEP LENGTH  86400.      1440.0      24.000      1.0000     2.73785E-03
 STRESS PERIOD TIME 6.91200E+06 1.15200E+05  1920.0      80.000     0.21903    
         TOTAL TIME 1.56384E+07 2.60640E+05  4344.0      181.00     0.49555    
1

 SOLVING FOR HEAD 

    ------------------------------------------------
       NWT REQUIRED            3 OUTER ITERATIONS 
       AND A TOTAL OF          3 INNER ITERATIONS.
    ------------------------------------------------

 OUTPUT CONTROL FOR STRESS PERIOD    3   TIME STEP   81
    SAVE HEAD FOR ALL LAYERS
    SAVE DRAWDOWN FOR ALL LAYERS
    SAVE BUDGET
    PRINT HEAD FOR ALL LAYERS
    PRINT BUDGET
1
              HEAD IN LAYER   1 AT END OF TIME STEP  81 IN STRESS PERIOD    3
  ---------------------------------------------------------------------------

            1           2           3           4           5           6           7           8           9          10
           11          12          13          14          15          16          17          18          19          20
 ........................................................................................................................
   1    0.000       0.000       0.000       0.000       0.000       10.56       10.41       10.85       11.53       11.47    
        10.22       7.345       2.135     -0.5723       5.762       21.60       31.96       37.50       0.000       0.000    
   2    0.000       0.000       0.000       0.000       8.364       7.937       7.135       7.828       9.330       9.612    
        8.743       6.562       2.506     -0.7203       8.352       23.36       33.65       39.55       0.000       0.000    
   3    0.000       0.000       0.000       6.331       5.997       3.998       3.129       3.726       5.199       5.757    
        5.410       4.381       2.754      -1.071       14.15       26.13       37.09       43.81       0.000       0.000    
   4    0.000       0.000       3.585       3.902       2.639     -0.9023     -0.5435     -0.7165      -1.055     -0.9788    
      -0.9381     -0.6650       1.247      -1.168       19.07       32.40       42.15       50.77       0.000       0.000    
   5    0.000       0.000      0.2465     -0.1795      -1.274     -0.4670       4.890       8.251       11.42       12.10    
        9.909     -0.4678      -1.150      0.2441       26.08       39.69       53.41       64.48       75.40       0.000    
   6    0.000      -1.182      -1.379     -0.9283       1.856       10.73       16.09       19.75       22.37       23.91    
        23.65       21.55       22.94       28.12       41.00       53.46       67.81       72.90       77.85       0.000    
   7    0.000       9.752       11.32       13.19       16.33       21.39       25.80       29.19       31.22       34.21    
        35.83       37.08       40.07       45.62       54.90       65.15       74.19       80.24       0.000       0.000    
   8    0.000       16.04       20.35       22.98       26.00       29.80       33.57       36.93       39.78       42.70    
        45.30       48.07       51.98       57.57       65.04       73.21       80.71       88.80       0.000       0.000    
   9    0.000       0.000       28.10       29.78       32.34       35.55       38.95       42.26       45.39       48.51    
        51.65       55.15       59.49       65.01       71.70       79.04       86.48       94.45       102.3       107.2    
  10    0.000       0.000       31.86       33.21       35.52       38.46       41.69       44.96       48.18       51.43    
        54.81       58.59       63.12       68.59       74.99       81.98       89.21       96.44       102.8       106.5    

 HEAD WILL BE SAVED ON UNIT   51 AT END OF TIME STEP   81, STRESS PERIOD    3

 DRAWDOWN WILL BE SAVED ON UNIT   52 AT END OF TIME STEP   81, STRESS PERIOD    3
1
  VOLUMETRIC BUDGET FOR ENTIRE MODEL AT END OF TIME STEP   81, STRESS PERIOD   3
  ------------------------------------------------------------------------------

     CUMULATIVE VOLUMES      L**3       RATES FOR THIS TIME STEP      L**3/T
     ------------------                 ------------------------

           IN:                                      IN:
           ---                                      ---
             STORAGE =     4049343.5000               STORAGE =       32235.3418
       CONSTANT HEAD =           0.0000         CONSTANT HEAD =           0.0000
               WELLS =           0.0000                 WELLS =           0.0000
       RIVER LEAKAGE =           0.0000         RIVER LEAKAGE =           0.0000
            RECHARGE =     4994726.5000              RECHARGE =       20261.7871

            TOTAL IN =     9044070.0000              TOTAL IN =       52497.1289

          OUT:                                     OUT:
          ----                                     ----
             STORAGE =      790712.7500               STORAGE =           0.0000
       CONSTANT HEAD =           0.0000         CONSTANT HEAD =           0.0000
               WELLS =       92719.5234                 WELLS =         509.4487
       RIVER LEAKAGE =     8160036.5000         RIVER LEAKAGE =       51979.5664
            RECHARGE =           0.0000              RECHARGE =           0.0000

           TOTAL OUT =     9043469.0000             TOTAL OUT =       52489.0156

            IN - OUT =         601.0000              IN - OUT =           8.1133

 PERCENT DISCREPANCY =           0.01     PERCENT DISCREPANCY =           0.02






         TIME SUMMARY AT END OF TIME STEP   81 IN STRESS PERIOD    3
                    SECONDS     MINUTES      HOURS       DAYS        YEARS
                    -----------------------------------------------------------
   TIME STEP LENGTH  86400.      1440.0      24.000      1.0000     2.73785E-03
 STRESS PERIOD TIME 6.99840E+06 1.16640E+05  1944.0      81.000     0.22177    
         TOTAL TIME 1.57248E+07 2.62080E+05  4368.0      182.00     0.49829    
1

 SOLVING FOR HEAD 

    ------------------------------------------------
       NWT REQUIRED            3 OUTER ITERATIONS 
       AND A TOTAL OF          3 INNER ITERATIONS.
    ------------------------------------------------

 OUTPUT CONTROL FOR STRESS PERIOD    3   TIME STEP   82
    SAVE HEAD FOR ALL LAYERS
    SAVE DRAWDOWN FOR ALL LAYERS
    SAVE BUDGET
    PRINT HEAD FOR ALL LAYERS
    PRINT BUDGET
1
              HEAD IN LAYER   1 AT END OF TIME STEP  82 IN STRESS PERIOD    3
  ---------------------------------------------------------------------------

            1           2           3           4           5           6           7           8           9          10
           11          12          13          14          15          16          17          18          19          20
 ........................................................................................................................
   1    0.000       0.000       0.000       0.000       0.000       10.56       10.41       10.85       11.53       11.47    
        10.22       7.344       2.132     -0.5759       5.760       21.60       31.96       37.50       0.000       0.000    
   2    0.000       0.000       0.000       0.000       8.363       7.937       7.134       7.827       9.330       9.611    
        8.743       6.561       2.504     -0.7246       8.350       23.35       33.65       39.55       0.000       0.000    
   3    0.000       0.000       0.000       6.330       5.996       3.996       3.126       3.724       5.197       5.755    
        5.408       4.380       2.752      -1.076       14.15       26.13       37.09       43.81       0.000       0.000    
   4    0.000       0.000       3.583       3.901       2.636     -0.9069     -0.5475     -0.7211      -1.060     -0.9839    
      -0.9430     -0.6688       1.245      -1.173       19.07       32.40       42.15       50.77       0.000       0.000    
   5    0.000       0.000      0.2421     -0.1817      -1.279     -0.4712       4.888       8.250       11.42       12.10    
        9.907     -0.4721      -1.155      0.2418       26.08       39.69       53.41       64.48       75.40       0.000    
   6    0.000      -1.187      -1.384     -0.9333       1.851       10.73       16.09       19.75       22.36       23.91    
        23.65       21.55       22.94       28.11       41.00       53.46       67.81       72.90       77.85       0.000    
   7    0.000       9.750       11.32       13.19       16.33       21.39       25.80       29.19       31.22       34.21    
        35.83       37.08       40.07       45.62       54.90       65.15       74.19       80.24       0.000       0.000    
   8    0.000       16.04       20.34       22.98       26.00       29.80       33.57       36.92       39.78       42.70    
        45.30       48.07       51.98       57.57       65.04       73.21       80.71       88.80       0.000       0.000    
   9    0.000       0.000       28.10       29.78       32.34       35.55       38.95       42.26       45.39       48.51    
        51.65       55.15       59.49       65.01       71.70       79.04       86.48       94.45       102.3       107.2    
  10    0.000       0.000       31.86       33.21       35.52       38.46       41.68       44.96       48.18       51.43    
        54.81       58.59       63.12       68.59       74.99       81.98       89.21       96.44       102.8       106.5    

 HEAD WILL BE SAVED ON UNIT   51 AT END OF TIME STEP   82, STRESS PERIOD    3

 DRAWDOWN WILL BE SAVED ON UNIT   52 AT END OF TIME STEP   82, STRESS PERIOD    3
1
  VOLUMETRIC BUDGET FOR ENTIRE MODEL AT END OF TIME STEP   82, STRESS PERIOD   3
  ------------------------------------------------------------------------------

     CUMULATIVE VOLUMES      L**3       RATES FOR THIS TIME STEP      L**3/T
     ------------------                 ------------------------

           IN:                                      IN:
           ---                                      ---
             STORAGE =     4081331.7500               STORAGE =       31988.2812
       CONSTANT HEAD =           0.0000         CONSTANT HEAD =           0.0000
               WELLS =           0.0000                 WELLS =           0.0000
       RIVER LEAKAGE =           0.0000         RIVER LEAKAGE =           0.0000
            RECHARGE =     5014988.5000              RECHARGE =       20261.7871

            TOTAL IN =     9096320.0000              TOTAL IN =       52250.0703

          OUT:                                     OUT:
          ----                                     ----
             STORAGE =      790712.7500               STORAGE =           0.0000
       CONSTANT HEAD =           0.0000         CONSTANT HEAD =           0.0000
               WELLS =       93228.9688                 WELLS =         509.4487
       RIVER LEAKAGE =     8211769.0000         RIVER LEAKAGE =       51732.5664
            RECHARGE =           0.0000              RECHARGE =           0.0000

           TOTAL OUT =     9095711.0000             TOTAL OUT =       52242.0156

            IN - OUT =         609.0000              IN - OUT =           8.0547

 PERCENT DISCREPANCY =           0.01     PERCENT DISCREPANCY =           0.02






         TIME SUMMARY AT END OF TIME STEP   82 IN STRESS PERIOD    3
                    SECONDS     MINUTES      HOURS       DAYS        YEARS
                    -----------------------------------------------------------
   TIME STEP LENGTH  86400.      1440.0      24.000      1.0000     2.73785E-03
 STRESS PERIOD TIME 7.08480E+06 1.18080E+05  1968.0      82.000     0.22450    
         TOTAL TIME 1.58112E+07 2.63520E+05  4392.0      183.00     0.50103    
1

 SOLVING FOR HEAD 

    ------------------------------------------------
       NWT REQUIRED            3 OUTER ITERATIONS 
       AND A TOTAL OF          3 INNER ITERATIONS.
    ------------------------------------------------

 OUTPUT CONTROL FOR STRESS PERIOD    3   TIME STEP   83
    SAVE HEAD FOR ALL LAYERS
    SAVE DRAWDOWN FOR ALL LAYERS
    SAVE BUDGET
    PRINT HEAD FOR ALL LAYERS
    PRINT BUDGET
1
              HEAD IN LAYER   1 AT END OF TIME STEP  83 IN STRESS PERIOD    3
  ---------------------------------------------------------------------------

            1           2           3           4           5           6           7           8           9          10
           11          12          13          14          15          16          17          18          19          20
 ........................................................................................................................
   1    0.000       0.000       0.000       0.000       0.000       10.56       10.41       10.85       11.53       11.47    
        10.22       7.344       2.130     -0.5795       5.758       21.60       31.96       37.50       0.000       0.000    
   2    0.000       0.000       0.000       0.000       8.363       7.936       7.133       7.827       9.329       9.611    
        8.742       6.561       2.502     -0.7288       8.348       23.35       33.65       39.55       0.000       0.000    
   3    0.000       0.000       0.000       6.329       5.996       3.994       3.124       3.721       5.195       5.754    
        5.407       4.379       2.750      -1.081       14.14       26.13       37.09       43.81       0.000       0.000    
   4    0.000       0.000       3.582       3.900       2.634     -0.9115     -0.5514     -0.7257      -1.065     -0.9889    
      -0.9479     -0.6726       1.242      -1.178       19.07       32.40       42.14       50.77       0.000       0.000    
   5    0.000       0.000      0.2378     -0.1839      -1.284     -0.4753       4.886       8.248       11.42       12.09    
        9.905     -0.4763      -1.160      0.2396       26.08       39.69       53.41       64.47       75.40       0.000    
   6    0.000      -1.193      -1.389     -0.9382       1.846       10.73       16.09       19.75       22.36       23.91    
        23.65       21.55       22.94       28.11       41.00       53.46       67.81       72.90       77.85       0.000    
   7    0.000       9.749       11.32       13.19       16.33       21.39       25.80       29.19       31.22       34.21    
        35.83       37.07       40.07       45.62       54.90       65.15       74.19       80.24       0.000       0.000    
   8    0.000       16.04       20.34       22.98       26.00       29.80       33.57       36.92       39.78       42.70    
        45.30       48.07       51.98       57.57       65.04       73.21       80.71       88.80       0.000       0.000    
   9    0.000       0.000       28.10       29.77       32.34       35.55       38.95       42.26       45.39       48.51    
        51.65       55.15       59.49       65.01       71.70       79.04       86.48       94.45       102.3       107.2    
  10    0.000       0.000       31.85       33.21       35.51       38.46       41.68       44.96       48.18       51.43    
        54.81       58.59       63.12       68.59       74.99       81.98       89.21       96.44       102.8       106.5    

 HEAD WILL BE SAVED ON UNIT   51 AT END OF TIME STEP   83, STRESS PERIOD    3

 DRAWDOWN WILL BE SAVED ON UNIT   52 AT END OF TIME STEP   83, STRESS PERIOD    3
1
  VOLUMETRIC BUDGET FOR ENTIRE MODEL AT END OF TIME STEP   83, STRESS PERIOD   3
  ------------------------------------------------------------------------------

     CUMULATIVE VOLUMES      L**3       RATES FOR THIS TIME STEP      L**3/T
     ------------------                 ------------------------

           IN:                                      IN:
           ---                                      ---
             STORAGE =     4113075.7500               STORAGE =       31743.9121
       CONSTANT HEAD =           0.0000         CONSTANT HEAD =           0.0000
               WELLS =           0.0000                 WELLS =           0.0000
       RIVER LEAKAGE =           0.0000         RIVER LEAKAGE =           0.0000
            RECHARGE =     5035250.5000              RECHARGE =       20261.7871

            TOTAL IN =     9148326.0000              TOTAL IN =       52005.6992

          OUT:                                     OUT:
          ----                                     ----
             STORAGE =      790712.7500               STORAGE =           0.0000
       CONSTANT HEAD =           0.0000         CONSTANT HEAD =           0.0000
               WELLS =       93738.4141                 WELLS =         509.4487
       RIVER LEAKAGE =     8263257.5000         RIVER LEAKAGE =       51488.2578
            RECHARGE =           0.0000              RECHARGE =           0.0000

           TOTAL OUT =     9147709.0000             TOTAL OUT =       51997.7070

            IN - OUT =         617.0000              IN - OUT =           7.9922

 PERCENT DISCREPANCY =           0.01     PERCENT DISCREPANCY =           0.02






         TIME SUMMARY AT END OF TIME STEP   83 IN STRESS PERIOD    3
                    SECONDS     MINUTES      HOURS       DAYS        YEARS
                    -----------------------------------------------------------
   TIME STEP LENGTH  86400.      1440.0      24.000      1.0000     2.73785E-03
 STRESS PERIOD TIME 7.17120E+06 1.19520E+05  1992.0      83.000     0.22724    
         TOTAL TIME 1.58976E+07 2.64960E+05  4416.0      184.00     0.50376    
1

 SOLVING FOR HEAD 

    ------------------------------------------------
       NWT REQUIRED            3 OUTER ITERATIONS 
       AND A TOTAL OF          3 INNER ITERATIONS.
    ------------------------------------------------

 OUTPUT CONTROL FOR STRESS PERIOD    3   TIME STEP   84
    SAVE HEAD FOR ALL LAYERS
    SAVE DRAWDOWN FOR ALL LAYERS
    SAVE BUDGET
    PRINT HEAD FOR ALL LAYERS
    PRINT BUDGET
1
              HEAD IN LAYER   1 AT END OF TIME STEP  84 IN STRESS PERIOD    3
  ---------------------------------------------------------------------------

            1           2           3           4           5           6           7           8           9          10
           11          12          13          14          15          16          17          18          19          20
 ........................................................................................................................
   1    0.000       0.000       0.000       0.000       0.000       10.56       10.41       10.85       11.53       11.47    
        10.22       7.343       2.128     -0.5831       5.756       21.60       31.96       37.49       0.000       0.000    
   2    0.000       0.000       0.000       0.000       8.362       7.935       7.132       7.826       9.328       9.610    
        8.741       6.560       2.500     -0.7331       8.346       23.35       33.65       39.55       0.000       0.000    
   3    0.000       0.000       0.000       6.329       5.995       3.992       3.122       3.719       5.194       5.752    
        5.405       4.377       2.749      -1.086       14.14       26.13       37.09       43.81       0.000       0.000    
   4    0.000       0.000       3.581       3.899       2.632     -0.9161     -0.5554     -0.7302      -1.070     -0.9938    
      -0.9528     -0.6764       1.239      -1.183       19.07       32.40       42.14       50.77       0.000       0.000    
   5    0.000       0.000      0.2335     -0.1861      -1.289     -0.4794       4.884       8.246       11.42       12.09    
        9.903     -0.4804      -1.165      0.2374       26.08       39.69       53.41       64.47       75.40       0.000    
   6    0.000      -1.198      -1.393     -0.9432       1.842       10.73       16.09       19.75       22.36       23.91    
        23.65       21.55       22.94       28.11       41.00       53.46       67.81       72.90       77.85       0.000    
   7    0.000       9.747       11.32       13.19       16.33       21.39       25.79       29.19       31.22       34.21    
        35.83       37.07       40.07       45.61       54.90       65.15       74.19       80.24       0.000       0.000    
   8    0.000       16.04       20.34       22.98       26.00       29.80       33.57       36.92       39.78       42.69    
        45.30       48.07       51.97       57.57       65.04       73.21       80.71       88.80       0.000       0.000    
   9    0.000       0.000       28.10       29.77       32.34       35.55       38.95       42.26       45.39       48.51    
        51.65       55.14       59.49       65.01       71.70       79.03       86.48       94.45       102.3       107.2    
  10    0.000       0.000       31.85       33.21       35.51       38.45       41.68       44.95       48.18       51.43    
        54.81       58.59       63.12       68.59       74.99       81.98       89.21       96.44       102.8       106.5    

 HEAD WILL BE SAVED ON UNIT   51 AT END OF TIME STEP   84, STRESS PERIOD    3

 DRAWDOWN WILL BE SAVED ON UNIT   52 AT END OF TIME STEP   84, STRESS PERIOD    3
1
  VOLUMETRIC BUDGET FOR ENTIRE MODEL AT END OF TIME STEP   84, STRESS PERIOD   3
  ------------------------------------------------------------------------------

     CUMULATIVE VOLUMES      L**3       RATES FOR THIS TIME STEP      L**3/T
     ------------------                 ------------------------

           IN:                                      IN:
           ---                                      ---
             STORAGE =     4144578.0000               STORAGE =       31502.2031
       CONSTANT HEAD =           0.0000         CONSTANT HEAD =           0.0000
               WELLS =           0.0000                 WELLS =           0.0000
       RIVER LEAKAGE =           0.0000         RIVER LEAKAGE =           0.0000
            RECHARGE =     5055512.5000              RECHARGE =       20261.7871

            TOTAL IN =     9200090.0000              TOTAL IN =       51763.9922

          OUT:                                     OUT:
          ----                                     ----
             STORAGE =      790712.7500               STORAGE =           0.0000
       CONSTANT HEAD =           0.0000         CONSTANT HEAD =           0.0000
               WELLS =       94247.8594                 WELLS =         509.4487
       RIVER LEAKAGE =     8314504.0000         RIVER LEAKAGE =       51246.6094
            RECHARGE =           0.0000              RECHARGE =           0.0000

           TOTAL OUT =     9199465.0000             TOTAL OUT =       51756.0586

            IN - OUT =         625.0000              IN - OUT =           7.9336

 PERCENT DISCREPANCY =           0.01     PERCENT DISCREPANCY =           0.02






         TIME SUMMARY AT END OF TIME STEP   84 IN STRESS PERIOD    3
                    SECONDS     MINUTES      HOURS       DAYS        YEARS
                    -----------------------------------------------------------
   TIME STEP LENGTH  86400.      1440.0      24.000      1.0000     2.73785E-03
 STRESS PERIOD TIME 7.25760E+06 1.20960E+05  2016.0      84.000     0.22998    
         TOTAL TIME 1.59840E+07 2.66400E+05  4440.0      185.00     0.50650    
1

 SOLVING FOR HEAD 

    ------------------------------------------------
       NWT REQUIRED            3 OUTER ITERATIONS 
       AND A TOTAL OF          3 INNER ITERATIONS.
    ------------------------------------------------

 OUTPUT CONTROL FOR STRESS PERIOD    3   TIME STEP   85
    SAVE HEAD FOR ALL LAYERS
    SAVE DRAWDOWN FOR ALL LAYERS
    SAVE BUDGET
    PRINT HEAD FOR ALL LAYERS
    PRINT BUDGET
1
              HEAD IN LAYER   1 AT END OF TIME STEP  85 IN STRESS PERIOD    3
  ---------------------------------------------------------------------------

            1           2           3           4           5           6           7           8           9          10
           11          12          13          14          15          16          17          18          19          20
 ........................................................................................................................
   1    0.000       0.000       0.000       0.000       0.000       10.56       10.41       10.85       11.53       11.47    
        10.22       7.342       2.126     -0.5867       5.754       21.60       31.95       37.49       0.000       0.000    
   2    0.000       0.000       0.000       0.000       8.362       7.934       7.132       7.825       9.327       9.609    
        8.741       6.559       2.497     -0.7373       8.344       23.35       33.65       39.55       0.000       0.000    
   3    0.000       0.000       0.000       6.328       5.994       3.990       3.119       3.717       5.192       5.750    
        5.404       4.376       2.747      -1.091       14.14       26.13       37.09       43.81       0.000       0.000    
   4    0.000       0.000       3.579       3.898       2.629     -0.9206     -0.5593     -0.7347      -1.075     -0.9987    
      -0.9576     -0.6802       1.236      -1.188       19.07       32.40       42.14       50.77       0.000       0.000    
   5    0.000       0.000      0.2292     -0.1882      -1.294     -0.4835       4.881       8.244       11.41       12.09    
        9.901     -0.4846      -1.169      0.2354       26.08       39.69       53.40       64.47       75.40       0.000    
   6    0.000      -1.203      -1.397     -0.9480       1.837       10.72       16.09       19.75       22.36       23.91    
        23.65       21.54       22.94       28.11       41.00       53.45       67.81       72.90       77.85       0.000    
   7    0.000       9.745       11.32       13.19       16.33       21.39       25.79       29.19       31.22       34.21    
        35.83       37.07       40.07       45.61       54.90       65.15       74.19       80.24       0.000       0.000    
   8    0.000       16.04       20.34       22.98       26.00       29.80       33.57       36.92       39.78       42.69    
        45.29       48.07       51.97       57.57       65.04       73.21       80.70       88.79       0.000       0.000    
   9    0.000       0.000       28.10       29.77       32.34       35.55       38.95       42.26       45.39       48.51    
        51.65       55.14       59.49       65.01       71.70       79.03       86.48       94.45       102.3       107.2    
  10    0.000       0.000       31.85       33.20       35.51       38.45       41.68       44.95       48.18       51.42    
        54.81       58.59       63.12       68.59       74.99       81.98       89.21       96.44       102.8       106.5    

 HEAD WILL BE SAVED ON UNIT   51 AT END OF TIME STEP   85, STRESS PERIOD    3

 DRAWDOWN WILL BE SAVED ON UNIT   52 AT END OF TIME STEP   85, STRESS PERIOD    3
1
  VOLUMETRIC BUDGET FOR ENTIRE MODEL AT END OF TIME STEP   85, STRESS PERIOD   3
  ------------------------------------------------------------------------------

     CUMULATIVE VOLUMES      L**3       RATES FOR THIS TIME STEP      L**3/T
     ------------------                 ------------------------

           IN:                                      IN:
           ---                                      ---
             STORAGE =     4175841.0000               STORAGE =       31263.1191
       CONSTANT HEAD =           0.0000         CONSTANT HEAD =           0.0000
               WELLS =           0.0000                 WELLS =           0.0000
       RIVER LEAKAGE =           0.0000         RIVER LEAKAGE =           0.0000
            RECHARGE =     5075774.5000              RECHARGE =       20261.7871

            TOTAL IN =     9251616.0000              TOTAL IN =       51524.9062

          OUT:                                     OUT:
          ----                                     ----
             STORAGE =      790712.7500               STORAGE =           0.0000
       CONSTANT HEAD =           0.0000         CONSTANT HEAD =           0.0000
               WELLS =       94757.3047                 WELLS =         509.4487
       RIVER LEAKAGE =     8365511.5000         RIVER LEAKAGE =       51007.5859
            RECHARGE =           0.0000              RECHARGE =           0.0000

           TOTAL OUT =     9250982.0000             TOTAL OUT =       51517.0352

            IN - OUT =         634.0000              IN - OUT =           7.8711

 PERCENT DISCREPANCY =           0.01     PERCENT DISCREPANCY =           0.02






         TIME SUMMARY AT END OF TIME STEP   85 IN STRESS PERIOD    3
                    SECONDS     MINUTES      HOURS       DAYS        YEARS
                    -----------------------------------------------------------
   TIME STEP LENGTH  86400.      1440.0      24.000      1.0000     2.73785E-03
 STRESS PERIOD TIME 7.34400E+06 1.22400E+05  2040.0      85.000     0.23272    
         TOTAL TIME 1.60704E+07 2.67840E+05  4464.0      186.00     0.50924    
1

 SOLVING FOR HEAD 

    ------------------------------------------------
       NWT REQUIRED            3 OUTER ITERATIONS 
       AND A TOTAL OF          3 INNER ITERATIONS.
    ------------------------------------------------

 OUTPUT CONTROL FOR STRESS PERIOD    3   TIME STEP   86
    SAVE HEAD FOR ALL LAYERS
    SAVE DRAWDOWN FOR ALL LAYERS
    SAVE BUDGET
    PRINT HEAD FOR ALL LAYERS
    PRINT BUDGET
1
              HEAD IN LAYER   1 AT END OF TIME STEP  86 IN STRESS PERIOD    3
  ---------------------------------------------------------------------------

            1           2           3           4           5           6           7           8           9          10
           11          12          13          14          15          16          17          18          19          20
 ........................................................................................................................
   1    0.000       0.000       0.000       0.000       0.000       10.56       10.41       10.85       11.53       11.47    
        10.22       7.341       2.124     -0.5902       5.752       21.60       31.95       37.49       0.000       0.000    
   2    0.000       0.000       0.000       0.000       8.361       7.934       7.131       7.824       9.327       9.608    
        8.740       6.558       2.495     -0.7415       8.342       23.35       33.65       39.55       0.000       0.000    
   3    0.000       0.000       0.000       6.327       5.993       3.988       3.117       3.715       5.190       5.749    
        5.402       4.375       2.745      -1.096       14.14       26.13       37.09       43.81       0.000       0.000    
   4    0.000       0.000       3.578       3.897       2.627     -0.9251     -0.5632     -0.7392      -1.080      -1.004    
      -0.9624     -0.6839       1.233      -1.192       19.07       32.40       42.14       50.77       0.000       0.000    
   5    0.000       0.000      0.2249     -0.1904      -1.299     -0.4875       4.879       8.242       11.41       12.09    
        9.899     -0.4887      -1.174      0.2333       26.08       39.69       53.40       64.47       75.40       0.000    
   6    0.000      -1.207      -1.402     -0.9528       1.832       10.72       16.09       19.75       22.36       23.91    
        23.65       21.54       22.94       28.11       40.99       53.45       67.81       72.90       77.85       0.000    
   7    0.000       9.744       11.31       13.19       16.33       21.38       25.79       29.19       31.22       34.21    
        35.82       37.07       40.07       45.61       54.90       65.15       74.19       80.24       0.000       0.000    
   8    0.000       16.03       20.34       22.98       26.00       29.80       33.57       36.92       39.78       42.69    
        45.29       48.07       51.97       57.57       65.04       73.21       80.70       88.79       0.000       0.000    
   9    0.000       0.000       28.10       29.77       32.34       35.54       38.95       42.25       45.39       48.51    
        51.65       55.14       59.49       65.01       71.70       79.03       86.48       94.45       102.3       107.2    
  10    0.000       0.000       31.85       33.20       35.51       38.45       41.68       44.95       48.18       51.42    
        54.81       58.59       63.11       68.59       74.99       81.98       89.20       96.44       102.8       106.5    

 HEAD WILL BE SAVED ON UNIT   51 AT END OF TIME STEP   86, STRESS PERIOD    3

 DRAWDOWN WILL BE SAVED ON UNIT   52 AT END OF TIME STEP   86, STRESS PERIOD    3
1
  VOLUMETRIC BUDGET FOR ENTIRE MODEL AT END OF TIME STEP   86, STRESS PERIOD   3
  ------------------------------------------------------------------------------

     CUMULATIVE VOLUMES      L**3       RATES FOR THIS TIME STEP      L**3/T
     ------------------                 ------------------------

           IN:                                      IN:
           ---                                      ---
             STORAGE =     4206867.5000               STORAGE =       31026.6250
       CONSTANT HEAD =           0.0000         CONSTANT HEAD =           0.0000
               WELLS =           0.0000                 WELLS =           0.0000
       RIVER LEAKAGE =           0.0000         RIVER LEAKAGE =           0.0000
            RECHARGE =     5096036.5000              RECHARGE =       20261.7871

            TOTAL IN =     9302904.0000              TOTAL IN =       51288.4141

          OUT:                                     OUT:
          ----                                     ----
             STORAGE =      790712.7500               STORAGE =           0.0000
       CONSTANT HEAD =           0.0000         CONSTANT HEAD =           0.0000
               WELLS =       95266.7500                 WELLS =         509.4487
       RIVER LEAKAGE =     8416283.0000         RIVER LEAKAGE =       50771.1523
            RECHARGE =           0.0000              RECHARGE =           0.0000

           TOTAL OUT =     9302262.0000             TOTAL OUT =       51280.6016

            IN - OUT =         642.0000              IN - OUT =           7.8125

 PERCENT DISCREPANCY =           0.01     PERCENT DISCREPANCY =           0.02






         TIME SUMMARY AT END OF TIME STEP   86 IN STRESS PERIOD    3
                    SECONDS     MINUTES      HOURS       DAYS        YEARS
                    -----------------------------------------------------------
   TIME STEP LENGTH  86400.      1440.0      24.000      1.0000     2.73785E-03
 STRESS PERIOD TIME 7.43040E+06 1.23840E+05  2064.0      86.000     0.23546    
         TOTAL TIME 1.61568E+07 2.69280E+05  4488.0      187.00     0.51198    
1

 SOLVING FOR HEAD 

    ------------------------------------------------
       NWT REQUIRED            3 OUTER ITERATIONS 
       AND A TOTAL OF          3 INNER ITERATIONS.
    ------------------------------------------------

 OUTPUT CONTROL FOR STRESS PERIOD    3   TIME STEP   87
    SAVE HEAD FOR ALL LAYERS
    SAVE DRAWDOWN FOR ALL LAYERS
    SAVE BUDGET
    PRINT HEAD FOR ALL LAYERS
    PRINT BUDGET
1
              HEAD IN LAYER   1 AT END OF TIME STEP  87 IN STRESS PERIOD    3
  ---------------------------------------------------------------------------

            1           2           3           4           5           6           7           8           9          10
           11          12          13          14          15          16          17          18          19          20
 ........................................................................................................................
   1    0.000       0.000       0.000       0.000       0.000       10.56       10.41       10.85       11.53       11.46    
        10.22       7.341       2.122     -0.5938       5.750       21.60       31.95       37.49       0.000       0.000    
   2    0.000       0.000       0.000       0.000       8.360       7.933       7.130       7.823       9.326       9.608    
        8.739       6.558       2.493     -0.7457       8.340       23.35       33.65       39.55       0.000       0.000    
   3    0.000       0.000       0.000       6.327       5.992       3.986       3.115       3.712       5.189       5.747    
        5.401       4.374       2.744      -1.101       14.14       26.12       37.09       43.81       0.000       0.000    
   4    0.000       0.000       3.577       3.896       2.624     -0.9296     -0.5671     -0.7436      -1.085      -1.008    
      -0.9671     -0.6877       1.230      -1.197       19.06       32.40       42.14       50.77       0.000       0.000    
   5    0.000       0.000      0.2207     -0.1926      -1.303     -0.4916       4.877       8.240       11.41       12.09    
        9.897     -0.4928      -1.178      0.2314       26.07       39.69       53.40       64.47       75.40       0.000    
   6    0.000      -1.212      -1.406     -0.9576       1.828       10.72       16.09       19.75       22.36       23.91    
        23.65       21.54       22.93       28.10       40.99       53.45       67.81       72.90       77.85       0.000    
   7    0.000       9.742       11.31       13.19       16.32       21.38       25.79       29.19       31.22       34.21    
        35.82       37.07       40.07       45.61       54.90       65.15       74.19       80.24       0.000       0.000    
   8    0.000       16.03       20.34       22.98       26.00       29.80       33.57       36.92       39.77       42.69    
        45.29       48.07       51.97       57.57       65.04       73.21       80.70       88.79       0.000       0.000    
   9    0.000       0.000       28.10       29.77       32.34       35.54       38.95       42.25       45.39       48.51    
        51.65       55.14       59.49       65.01       71.70       79.03       86.48       94.45       102.3       107.2    
  10    0.000       0.000       31.85       33.20       35.51       38.45       41.68       44.95       48.18       51.42    
        54.81       58.59       63.11       68.59       74.99       81.98       89.20       96.44       102.8       106.5    

 HEAD WILL BE SAVED ON UNIT   51 AT END OF TIME STEP   87, STRESS PERIOD    3

 DRAWDOWN WILL BE SAVED ON UNIT   52 AT END OF TIME STEP   87, STRESS PERIOD    3
1
  VOLUMETRIC BUDGET FOR ENTIRE MODEL AT END OF TIME STEP   87, STRESS PERIOD   3
  ------------------------------------------------------------------------------

     CUMULATIVE VOLUMES      L**3       RATES FOR THIS TIME STEP      L**3/T
     ------------------                 ------------------------

           IN:                                      IN:
           ---                                      ---
             STORAGE =     4237660.0000               STORAGE =       30792.6895
       CONSTANT HEAD =           0.0000         CONSTANT HEAD =           0.0000
               WELLS =           0.0000                 WELLS =           0.0000
       RIVER LEAKAGE =           0.0000         RIVER LEAKAGE =           0.0000
            RECHARGE =     5116298.5000              RECHARGE =       20261.7871

            TOTAL IN =     9353958.0000              TOTAL IN =       51054.4766

          OUT:                                     OUT:
          ----                                     ----
             STORAGE =      790712.7500               STORAGE =           0.0000
       CONSTANT HEAD =           0.0000         CONSTANT HEAD =           0.0000
               WELLS =       95776.1953                 WELLS =         509.4487
       RIVER LEAKAGE =     8466820.0000         RIVER LEAKAGE =       50537.2773
            RECHARGE =           0.0000              RECHARGE =           0.0000

           TOTAL OUT =     9353309.0000             TOTAL OUT =       51046.7266

            IN - OUT =         649.0000              IN - OUT =           7.7500

 PERCENT DISCREPANCY =           0.01     PERCENT DISCREPANCY =           0.02






         TIME SUMMARY AT END OF TIME STEP   87 IN STRESS PERIOD    3
                    SECONDS     MINUTES      HOURS       DAYS        YEARS
                    -----------------------------------------------------------
   TIME STEP LENGTH  86400.      1440.0      24.000      1.0000     2.73785E-03
 STRESS PERIOD TIME 7.51680E+06 1.25280E+05  2088.0      87.000     0.23819    
         TOTAL TIME 1.62432E+07 2.70720E+05  4512.0      188.00     0.51472    
1

 SOLVING FOR HEAD 

    ------------------------------------------------
       NWT REQUIRED            3 OUTER ITERATIONS 
       AND A TOTAL OF          3 INNER ITERATIONS.
    ------------------------------------------------

 OUTPUT CONTROL FOR STRESS PERIOD    3   TIME STEP   88
    SAVE HEAD FOR ALL LAYERS
    SAVE DRAWDOWN FOR ALL LAYERS
    SAVE BUDGET
    PRINT HEAD FOR ALL LAYERS
    PRINT BUDGET
1
              HEAD IN LAYER   1 AT END OF TIME STEP  88 IN STRESS PERIOD    3
  ---------------------------------------------------------------------------

            1           2           3           4           5           6           7           8           9          10
           11          12          13          14          15          16          17          18          19          20
 ........................................................................................................................
   1    0.000       0.000       0.000       0.000       0.000       10.56       10.41       10.85       11.53       11.46    
        10.22       7.340       2.120     -0.5973       5.748       21.59       31.95       37.49       0.000       0.000    
   2    0.000       0.000       0.000       0.000       8.360       7.932       7.129       7.822       9.325       9.607    
        8.739       6.557       2.491     -0.7498       8.338       23.35       33.65       39.55       0.000       0.000    
   3    0.000       0.000       0.000       6.326       5.991       3.984       3.112       3.710       5.187       5.746    
        5.400       4.372       2.742      -1.105       14.14       26.12       37.09       43.81       0.000       0.000    
   4    0.000       0.000       3.576       3.895       2.622     -0.9340     -0.5709     -0.7480      -1.089      -1.013    
      -0.9718     -0.6914       1.227      -1.202       19.06       32.40       42.14       50.77       0.000       0.000    
   5    0.000       0.000      0.2165     -0.1947      -1.308     -0.4956       4.874       8.238       11.41       12.09    
        9.895     -0.4969      -1.183      0.2295       26.07       39.69       53.40       64.47       75.40       0.000    
   6    0.000      -1.217      -1.410     -0.9623       1.823       10.72       16.09       19.75       22.36       23.91    
        23.65       21.54       22.93       28.10       40.99       53.45       67.81       72.89       77.85       0.000    
   7    0.000       9.740       11.31       13.18       16.32       21.38       25.79       29.19       31.22       34.21    
        35.82       37.07       40.06       45.61       54.90       65.15       74.19       80.24       0.000       0.000    
   8    0.000       16.03       20.34       22.98       26.00       29.80       33.57       36.92       39.77       42.69    
        45.29       48.07       51.97       57.57       65.04       73.21       80.70       88.79       0.000       0.000    
   9    0.000       0.000       28.10       29.77       32.34       35.54       38.95       42.25       45.39       48.51    
        51.65       55.14       59.49       65.01       71.70       79.03       86.48       94.45       102.3       107.2    
  10    0.000       0.000       31.85       33.20       35.51       38.45       41.68       44.95       48.18       51.42    
        54.81       58.59       63.11       68.59       74.99       81.98       89.20       96.44       102.8       106.5    

 HEAD WILL BE SAVED ON UNIT   51 AT END OF TIME STEP   88, STRESS PERIOD    3

 DRAWDOWN WILL BE SAVED ON UNIT   52 AT END OF TIME STEP   88, STRESS PERIOD    3
1
  VOLUMETRIC BUDGET FOR ENTIRE MODEL AT END OF TIME STEP   88, STRESS PERIOD   3
  ------------------------------------------------------------------------------

     CUMULATIVE VOLUMES      L**3       RATES FOR THIS TIME STEP      L**3/T
     ------------------                 ------------------------

           IN:                                      IN:
           ---                                      ---
             STORAGE =     4268221.5000               STORAGE =       30561.2793
       CONSTANT HEAD =           0.0000         CONSTANT HEAD =           0.0000
               WELLS =           0.0000                 WELLS =           0.0000
       RIVER LEAKAGE =           0.0000         RIVER LEAKAGE =           0.0000
            RECHARGE =     5136560.5000              RECHARGE =       20261.7871

            TOTAL IN =     9404782.0000              TOTAL IN =       50823.0664

          OUT:                                     OUT:
          ----                                     ----
             STORAGE =      790712.7500               STORAGE =           0.0000
       CONSTANT HEAD =           0.0000         CONSTANT HEAD =           0.0000
               WELLS =       96285.6406                 WELLS =         509.4487
       RIVER LEAKAGE =     8517126.0000         RIVER LEAKAGE =       50305.9258
            RECHARGE =           0.0000              RECHARGE =           0.0000

           TOTAL OUT =     9404124.0000             TOTAL OUT =       50815.3750

            IN - OUT =         658.0000              IN - OUT =           7.6914

 PERCENT DISCREPANCY =           0.01     PERCENT DISCREPANCY =           0.02






         TIME SUMMARY AT END OF TIME STEP   88 IN STRESS PERIOD    3
                    SECONDS     MINUTES      HOURS       DAYS        YEARS
                    -----------------------------------------------------------
   TIME STEP LENGTH  86400.      1440.0      24.000      1.0000     2.73785E-03
 STRESS PERIOD TIME 7.60320E+06 1.26720E+05  2112.0      88.000     0.24093    
         TOTAL TIME 1.63296E+07 2.72160E+05  4536.0      189.00     0.51745    
1

 SOLVING FOR HEAD 

    ------------------------------------------------
       NWT REQUIRED            3 OUTER ITERATIONS 
       AND A TOTAL OF          3 INNER ITERATIONS.
    ------------------------------------------------

 OUTPUT CONTROL FOR STRESS PERIOD    3   TIME STEP   89
    SAVE HEAD FOR ALL LAYERS
    SAVE DRAWDOWN FOR ALL LAYERS
    SAVE BUDGET
    PRINT HEAD FOR ALL LAYERS
    PRINT BUDGET
1
              HEAD IN LAYER   1 AT END OF TIME STEP  89 IN STRESS PERIOD    3
  ---------------------------------------------------------------------------

            1           2           3           4           5           6           7           8           9          10
           11          12          13          14          15          16          17          18          19          20
 ........................................................................................................................
   1    0.000       0.000       0.000       0.000       0.000       10.55       10.41       10.85       11.53       11.46    
        10.22       7.339       2.118     -0.6008       5.746       21.59       31.95       37.49       0.000       0.000    
   2    0.000       0.000       0.000       0.000       8.359       7.931       7.128       7.821       9.325       9.606    
        8.738       6.556       2.489     -0.7540       8.336       23.35       33.65       39.55       0.000       0.000    
   3    0.000       0.000       0.000       6.325       5.990       3.982       3.110       3.708       5.185       5.744    
        5.398       4.371       2.740      -1.110       14.14       26.12       37.09       43.81       0.000       0.000    
   4    0.000       0.000       3.574       3.894       2.620     -0.9383     -0.5748     -0.7523      -1.094      -1.018    
      -0.9764     -0.6951       1.225      -1.206       19.06       32.40       42.14       50.77       0.000       0.000    
   5    0.000       0.000      0.2123     -0.1969      -1.313     -0.4996       4.872       8.236       11.41       12.08    
        9.893     -0.5009      -1.187      0.2276       26.07       39.69       53.40       64.47       75.40       0.000    
   6    0.000      -1.222      -1.415     -0.9670       1.819       10.72       16.09       19.75       22.36       23.91    
        23.65       21.54       22.93       28.10       40.99       53.45       67.81       72.89       77.85       0.000    
   7    0.000       9.738       11.31       13.18       16.32       21.38       25.79       29.19       31.22       34.21    
        35.82       37.07       40.06       45.61       54.90       65.15       74.19       80.24       0.000       0.000    
   8    0.000       16.03       20.34       22.97       26.00       29.80       33.57       36.92       39.77       42.69    
        45.29       48.07       51.97       57.57       65.04       73.21       80.70       88.79       0.000       0.000    
   9    0.000       0.000       28.10       29.77       32.34       35.54       38.95       42.25       45.39       48.50    
        51.65       55.14       59.49       65.01       71.70       79.03       86.48       94.45       102.3       107.2    
  10    0.000       0.000       31.85       33.20       35.51       38.45       41.68       44.95       48.18       51.42    
        54.81       58.59       63.11       68.59       74.99       81.98       89.20       96.44       102.8       106.5    

 HEAD WILL BE SAVED ON UNIT   51 AT END OF TIME STEP   89, STRESS PERIOD    3

 DRAWDOWN WILL BE SAVED ON UNIT   52 AT END OF TIME STEP   89, STRESS PERIOD    3
1
  VOLUMETRIC BUDGET FOR ENTIRE MODEL AT END OF TIME STEP   89, STRESS PERIOD   3
  ------------------------------------------------------------------------------

     CUMULATIVE VOLUMES      L**3       RATES FOR THIS TIME STEP      L**3/T
     ------------------                 ------------------------

           IN:                                      IN:
           ---                                      ---
             STORAGE =     4298554.0000               STORAGE =       30332.3613
       CONSTANT HEAD =           0.0000         CONSTANT HEAD =           0.0000
               WELLS =           0.0000                 WELLS =           0.0000
       RIVER LEAKAGE =           0.0000         RIVER LEAKAGE =           0.0000
            RECHARGE =     5156822.5000              RECHARGE =       20261.7871

            TOTAL IN =     9455376.0000              TOTAL IN =       50594.1484

          OUT:                                     OUT:
          ----                                     ----
             STORAGE =      790712.7500               STORAGE =           0.0000
       CONSTANT HEAD =           0.0000         CONSTANT HEAD =           0.0000
               WELLS =       96795.0859                 WELLS =         509.4487
       RIVER LEAKAGE =     8567203.0000         RIVER LEAKAGE =       50077.0664
            RECHARGE =           0.0000              RECHARGE =           0.0000

           TOTAL OUT =     9454711.0000             TOTAL OUT =       50586.5156

            IN - OUT =         665.0000              IN - OUT =           7.6328

 PERCENT DISCREPANCY =           0.01     PERCENT DISCREPANCY =           0.02






         TIME SUMMARY AT END OF TIME STEP   89 IN STRESS PERIOD    3
                    SECONDS     MINUTES      HOURS       DAYS        YEARS
                    -----------------------------------------------------------
   TIME STEP LENGTH  86400.      1440.0      24.000      1.0000     2.73785E-03
 STRESS PERIOD TIME 7.68960E+06 1.28160E+05  2136.0      89.000     0.24367    
         TOTAL TIME 1.64160E+07 2.73600E+05  4560.0      190.00     0.52019    
1

 SOLVING FOR HEAD 

    ------------------------------------------------
       NWT REQUIRED            3 OUTER ITERATIONS 
       AND A TOTAL OF          3 INNER ITERATIONS.
    ------------------------------------------------

 OUTPUT CONTROL FOR STRESS PERIOD    3   TIME STEP   90
    SAVE HEAD FOR ALL LAYERS
    SAVE DRAWDOWN FOR ALL LAYERS
    SAVE BUDGET
    PRINT HEAD FOR ALL LAYERS
    PRINT BUDGET
1
              HEAD IN LAYER   1 AT END OF TIME STEP  90 IN STRESS PERIOD    3
  ---------------------------------------------------------------------------

            1           2           3           4           5           6           7           8           9          10
           11          12          13          14          15          16          17          18          19          20
 ........................................................................................................................
   1    0.000       0.000       0.000       0.000       0.000       10.55       10.41       10.84       11.53       11.46    
        10.22       7.338       2.116     -0.6043       5.744       21.59       31.95       37.49       0.000       0.000    
   2    0.000       0.000       0.000       0.000       8.358       7.930       7.127       7.821       9.324       9.606    
        8.737       6.555       2.487     -0.7580       8.334       23.35       33.65       39.55       0.000       0.000    
   3    0.000       0.000       0.000       6.325       5.989       3.980       3.107       3.706       5.184       5.743    
        5.397       4.370       2.739      -1.114       14.13       26.12       37.09       43.81       0.000       0.000    
   4    0.000       0.000       3.573       3.893       2.617     -0.9427     -0.5786     -0.7566      -1.099      -1.022    
      -0.9810     -0.6988       1.222      -1.211       19.06       32.40       42.14       50.77       0.000       0.000    
   5    0.000       0.000      0.2081     -0.1991      -1.317     -0.5035       4.870       8.234       11.41       12.08    
        9.891     -0.5049      -1.192      0.2259       26.07       39.69       53.40       64.47       75.39       0.000    
   6    0.000      -1.227      -1.419     -0.9716       1.814       10.72       16.09       19.74       22.36       23.91    
        23.65       21.54       22.93       28.10       40.99       53.45       67.81       72.89       77.85       0.000    
   7    0.000       9.737       11.31       13.18       16.32       21.38       25.79       29.19       31.22       34.21    
        35.82       37.07       40.06       45.61       54.90       65.14       74.19       80.24       0.000       0.000    
   8    0.000       16.03       20.34       22.97       26.00       29.80       33.57       36.92       39.77       42.69    
        45.29       48.07       51.97       57.57       65.04       73.21       80.70       88.79       0.000       0.000    
   9    0.000       0.000       28.10       29.77       32.34       35.54       38.94       42.25       45.39       48.50    
        51.65       55.14       59.49       65.01       71.70       79.03       86.48       94.45       102.3       107.2    
  10    0.000       0.000       31.85       33.20       35.51       38.45       41.68       44.95       48.18       51.42    
        54.80       58.59       63.11       68.59       74.99       81.98       89.20       96.44       102.8       106.5    

 HEAD WILL BE SAVED ON UNIT   51 AT END OF TIME STEP   90, STRESS PERIOD    3

 DRAWDOWN WILL BE SAVED ON UNIT   52 AT END OF TIME STEP   90, STRESS PERIOD    3
1
  VOLUMETRIC BUDGET FOR ENTIRE MODEL AT END OF TIME STEP   90, STRESS PERIOD   3
  ------------------------------------------------------------------------------

     CUMULATIVE VOLUMES      L**3       RATES FOR THIS TIME STEP      L**3/T
     ------------------                 ------------------------

           IN:                                      IN:
           ---                                      ---
             STORAGE =     4328660.0000               STORAGE =       30105.9062
       CONSTANT HEAD =           0.0000         CONSTANT HEAD =           0.0000
               WELLS =           0.0000                 WELLS =           0.0000
       RIVER LEAKAGE =           0.0000         RIVER LEAKAGE =           0.0000
            RECHARGE =     5177084.5000              RECHARGE =       20261.7871

            TOTAL IN =     9505744.0000              TOTAL IN =       50367.6953

          OUT:                                     OUT:
          ----                                     ----
             STORAGE =      790712.7500               STORAGE =           0.0000
       CONSTANT HEAD =           0.0000         CONSTANT HEAD =           0.0000
               WELLS =       97304.5312                 WELLS =         509.4487
       RIVER LEAKAGE =     8617054.0000         RIVER LEAKAGE =       49850.6680
            RECHARGE =           0.0000              RECHARGE =           0.0000

           TOTAL OUT =     9505071.0000             TOTAL OUT =       50360.1172

            IN - OUT =         673.0000              IN - OUT =           7.5781

 PERCENT DISCREPANCY =           0.01     PERCENT DISCREPANCY =           0.02






         TIME SUMMARY AT END OF TIME STEP   90 IN STRESS PERIOD    3
                    SECONDS     MINUTES      HOURS       DAYS        YEARS
                    -----------------------------------------------------------
   TIME STEP LENGTH  86400.      1440.0      24.000      1.0000     2.73785E-03
 STRESS PERIOD TIME 7.77600E+06 1.29600E+05  2160.0      90.000     0.24641    
         TOTAL TIME 1.65024E+07 2.75040E+05  4584.0      191.00     0.52293    
1

 SOLVING FOR HEAD 

    ------------------------------------------------
       NWT REQUIRED            3 OUTER ITERATIONS 
       AND A TOTAL OF          3 INNER ITERATIONS.
    ------------------------------------------------

 OUTPUT CONTROL FOR STRESS PERIOD    3   TIME STEP   91
    SAVE HEAD FOR ALL LAYERS
    SAVE DRAWDOWN FOR ALL LAYERS
    SAVE BUDGET
    PRINT HEAD FOR ALL LAYERS
    PRINT BUDGET
1
              HEAD IN LAYER   1 AT END OF TIME STEP  91 IN STRESS PERIOD    3
  ---------------------------------------------------------------------------

            1           2           3           4           5           6           7           8           9          10
           11          12          13          14          15          16          17          18          19          20
 ........................................................................................................................
   1    0.000       0.000       0.000       0.000       0.000       10.55       10.41       10.84       11.53       11.46    
        10.22       7.338       2.113     -0.6078       5.741       21.59       31.95       37.49       0.000       0.000    
   2    0.000       0.000       0.000       0.000       8.358       7.930       7.126       7.820       9.323       9.605    
        8.737       6.555       2.485     -0.7621       8.332       23.35       33.65       39.55       0.000       0.000    
   3    0.000       0.000       0.000       6.324       5.988       3.978       3.105       3.703       5.182       5.741    
        5.395       4.369       2.737      -1.119       14.13       26.12       37.09       43.81       0.000       0.000    
   4    0.000       0.000       3.572       3.891       2.615     -0.9470     -0.5824     -0.7609      -1.103      -1.027    
      -0.9855     -0.7024       1.219      -1.215       19.06       32.39       42.14       50.77       0.000       0.000    
   5    0.000       0.000      0.2040     -0.2012      -1.322     -0.5075       4.867       8.233       11.41       12.08    
        9.889     -0.5088      -1.196      0.2241       26.07       39.69       53.40       64.47       75.39       0.000    
   6    0.000      -1.231      -1.423     -0.9762       1.810       10.71       16.08       19.74       22.36       23.91    
        23.65       21.54       22.93       28.10       40.99       53.45       67.81       72.89       77.85       0.000    
   7    0.000       9.735       11.30       13.18       16.32       21.38       25.79       29.19       31.22       34.21    
        35.82       37.07       40.06       45.61       54.90       65.14       74.19       80.24       0.000       0.000    
   8    0.000       16.03       20.34       22.97       26.00       29.79       33.57       36.92       39.77       42.69    
        45.29       48.07       51.97       57.57       65.04       73.21       80.70       88.79       0.000       0.000    
   9    0.000       0.000       28.10       29.77       32.34       35.54       38.94       42.25       45.38       48.50    
        51.65       55.14       59.49       65.01       71.70       79.03       86.48       94.44       102.3       107.2    
  10    0.000       0.000       31.85       33.20       35.51       38.45       41.68       44.95       48.18       51.42    
        54.80       58.59       63.11       68.59       74.98       81.98       89.20       96.44       102.8       106.5    

 HEAD WILL BE SAVED ON UNIT   51 AT END OF TIME STEP   91, STRESS PERIOD    3

 DRAWDOWN WILL BE SAVED ON UNIT   52 AT END OF TIME STEP   91, STRESS PERIOD    3
1
  VOLUMETRIC BUDGET FOR ENTIRE MODEL AT END OF TIME STEP   91, STRESS PERIOD   3
  ------------------------------------------------------------------------------

     CUMULATIVE VOLUMES      L**3       RATES FOR THIS TIME STEP      L**3/T
     ------------------                 ------------------------

           IN:                                      IN:
           ---                                      ---
             STORAGE =     4358542.0000               STORAGE =       29881.8828
       CONSTANT HEAD =           0.0000         CONSTANT HEAD =           0.0000
               WELLS =           0.0000                 WELLS =           0.0000
       RIVER LEAKAGE =           0.0000         RIVER LEAKAGE =           0.0000
            RECHARGE =     5197346.5000              RECHARGE =       20261.7871

            TOTAL IN =     9555888.0000              TOTAL IN =       50143.6719

          OUT:                                     OUT:
          ----                                     ----
             STORAGE =      790712.7500               STORAGE =           0.0000
       CONSTANT HEAD =           0.0000         CONSTANT HEAD =           0.0000
               WELLS =       97813.9766                 WELLS =         509.4487
       RIVER LEAKAGE =     8666681.0000         RIVER LEAKAGE =       49626.6992
            RECHARGE =           0.0000              RECHARGE =           0.0000

           TOTAL OUT =     9555208.0000             TOTAL OUT =       50136.1484

            IN - OUT =         680.0000              IN - OUT =           7.5234

 PERCENT DISCREPANCY =           0.01     PERCENT DISCREPANCY =           0.02






         TIME SUMMARY AT END OF TIME STEP   91 IN STRESS PERIOD    3
                    SECONDS     MINUTES      HOURS       DAYS        YEARS
                    -----------------------------------------------------------
   TIME STEP LENGTH  86400.      1440.0      24.000      1.0000     2.73785E-03
 STRESS PERIOD TIME 7.86240E+06 1.31040E+05  2184.0      91.000     0.24914    
         TOTAL TIME 1.65888E+07 2.76480E+05  4608.0      192.00     0.52567    
1

 SOLVING FOR HEAD 

    ------------------------------------------------
       NWT REQUIRED            3 OUTER ITERATIONS 
       AND A TOTAL OF          3 INNER ITERATIONS.
    ------------------------------------------------

 OUTPUT CONTROL FOR STRESS PERIOD    3   TIME STEP   92
    SAVE HEAD FOR ALL LAYERS
    SAVE DRAWDOWN FOR ALL LAYERS
    SAVE BUDGET
    PRINT HEAD FOR ALL LAYERS
    PRINT BUDGET
1
              HEAD IN LAYER   1 AT END OF TIME STEP  92 IN STRESS PERIOD    3
  ---------------------------------------------------------------------------

            1           2           3           4           5           6           7           8           9          10
           11          12          13          14          15          16          17          18          19          20
 ........................................................................................................................
   1    0.000       0.000       0.000       0.000       0.000       10.55       10.41       10.84       11.53       11.46    
        10.22       7.337       2.111     -0.6112       5.739       21.59       31.95       37.49       0.000       0.000    
   2    0.000       0.000       0.000       0.000       8.357       7.929       7.125       7.819       9.323       9.604    
        8.736       6.554       2.483     -0.7661       8.329       23.35       33.65       39.55       0.000       0.000    
   3    0.000       0.000       0.000       6.323       5.987       3.976       3.103       3.701       5.180       5.739    
        5.394       4.367       2.735      -1.123       14.13       26.12       37.09       43.81       0.000       0.000    
   4    0.000       0.000       3.570       3.890       2.612     -0.9513     -0.5862     -0.7652      -1.108      -1.031    
      -0.9900     -0.7061       1.216      -1.220       19.06       32.39       42.14       50.77       0.000       0.000    
   5    0.000       0.000      0.1999     -0.2034      -1.326     -0.5114       4.865       8.231       11.40       12.08    
        9.887     -0.5128      -1.200      0.2224       26.07       39.69       53.40       64.47       75.39       0.000    
   6    0.000      -1.236      -1.427     -0.9808       1.805       10.71       16.08       19.74       22.36       23.91    
        23.65       21.54       22.93       28.10       40.99       53.45       67.81       72.89       77.85       0.000    
   7    0.000       9.733       11.30       13.18       16.32       21.38       25.79       29.19       31.22       34.21    
        35.82       37.07       40.06       45.61       54.89       65.14       74.19       80.24       0.000       0.000    
   8    0.000       16.03       20.34       22.97       26.00       29.79       33.56       36.92       39.77       42.69    
        45.29       48.07       51.97       57.57       65.03       73.21       80.70       88.79       0.000       0.000    
   9    0.000       0.000       28.10       29.77       32.34       35.54       38.94       42.25       45.38       48.50    
        51.65       55.14       59.48       65.01       71.70       79.03       86.47       94.44       102.3       107.2    
  10    0.000       0.000       31.85       33.20       35.51       38.45       41.68       44.95       48.18       51.42    
        54.80       58.59       63.11       68.59       74.98       81.98       89.20       96.44       102.8       106.5    

 HEAD WILL BE SAVED ON UNIT   51 AT END OF TIME STEP   92, STRESS PERIOD    3

 DRAWDOWN WILL BE SAVED ON UNIT   52 AT END OF TIME STEP   92, STRESS PERIOD    3
1
  VOLUMETRIC BUDGET FOR ENTIRE MODEL AT END OF TIME STEP   92, STRESS PERIOD   3
  ------------------------------------------------------------------------------

     CUMULATIVE VOLUMES      L**3       RATES FOR THIS TIME STEP      L**3/T
     ------------------                 ------------------------

           IN:                                      IN:
           ---                                      ---
             STORAGE =     4388202.5000               STORAGE =       29660.2578
       CONSTANT HEAD =           0.0000         CONSTANT HEAD =           0.0000
               WELLS =           0.0000                 WELLS =           0.0000
       RIVER LEAKAGE =           0.0000         RIVER LEAKAGE =           0.0000
            RECHARGE =     5217608.5000              RECHARGE =       20261.7871

            TOTAL IN =     9605811.0000              TOTAL IN =       49922.0469

          OUT:                                     OUT:
          ----                                     ----
             STORAGE =      790712.7500               STORAGE =           0.0000
       CONSTANT HEAD =           0.0000         CONSTANT HEAD =           0.0000
               WELLS =       98323.4219                 WELLS =         509.4487
       RIVER LEAKAGE =     8716086.0000         RIVER LEAKAGE =       49405.1289
            RECHARGE =           0.0000              RECHARGE =           0.0000

           TOTAL OUT =     9605122.0000             TOTAL OUT =       49914.5781

            IN - OUT =         689.0000              IN - OUT =           7.4688

 PERCENT DISCREPANCY =           0.01     PERCENT DISCREPANCY =           0.01






         TIME SUMMARY AT END OF TIME STEP   92 IN STRESS PERIOD    3
                    SECONDS     MINUTES      HOURS       DAYS        YEARS
                    -----------------------------------------------------------
   TIME STEP LENGTH  86400.      1440.0      24.000      1.0000     2.73785E-03
 STRESS PERIOD TIME 7.94880E+06 1.32480E+05  2208.0      92.000     0.25188    
         TOTAL TIME 1.66752E+07 2.77920E+05  4632.0      193.00     0.52841    
1

 SOLVING FOR HEAD 

    ------------------------------------------------
       NWT REQUIRED            3 OUTER ITERATIONS 
       AND A TOTAL OF          3 INNER ITERATIONS.
    ------------------------------------------------

 OUTPUT CONTROL FOR STRESS PERIOD    3   TIME STEP   93
    SAVE HEAD FOR ALL LAYERS
    SAVE DRAWDOWN FOR ALL LAYERS
    SAVE BUDGET
    PRINT HEAD FOR ALL LAYERS
    PRINT BUDGET
1
              HEAD IN LAYER   1 AT END OF TIME STEP  93 IN STRESS PERIOD    3
  ---------------------------------------------------------------------------

            1           2           3           4           5           6           7           8           9          10
           11          12          13          14          15          16          17          18          19          20
 ........................................................................................................................
   1    0.000       0.000       0.000       0.000       0.000       10.55       10.41       10.84       11.53       11.46    
        10.21       7.336       2.109     -0.6146       5.737       21.59       31.95       37.49       0.000       0.000    
   2    0.000       0.000       0.000       0.000       8.356       7.928       7.124       7.818       9.322       9.604    
        8.735       6.553       2.481     -0.7701       8.327       23.35       33.65       39.55       0.000       0.000    
   3    0.000       0.000       0.000       6.323       5.986       3.974       3.100       3.699       5.178       5.738    
        5.392       4.366       2.733      -1.128       14.13       26.12       37.09       43.81       0.000       0.000    
   4    0.000       0.000       3.569       3.889       2.610     -0.9555     -0.5899     -0.7694      -1.112      -1.036    
      -0.9945     -0.7097       1.213      -1.224       19.05       32.39       42.14       50.77       0.000       0.000    
   5    0.000       0.000      0.1958     -0.2055      -1.331     -0.5153       4.862       8.229       11.40       12.08    
        9.885     -0.5167      -1.204      0.2208       26.06       39.69       53.40       64.47       75.39       0.000    
   6    0.000      -1.240      -1.430     -0.9853       1.801       10.71       16.08       19.74       22.36       23.91    
        23.64       21.53       22.92       28.09       40.99       53.45       67.81       72.89       77.85       0.000    
   7    0.000       9.732       11.30       13.18       16.32       21.38       25.79       29.19       31.21       34.21    
        35.82       37.07       40.06       45.61       54.89       65.14       74.19       80.24       0.000       0.000    
   8    0.000       16.03       20.34       22.97       26.00       29.79       33.56       36.92       39.77       42.69    
        45.29       48.07       51.97       57.57       65.03       73.21       80.70       88.79       0.000       0.000    
   9    0.000       0.000       28.10       29.77       32.34       35.54       38.94       42.25       45.38       48.50    
        51.64       55.14       59.48       65.01       71.70       79.03       86.47       94.44       102.3       107.2    
  10    0.000       0.000       31.85       33.20       35.51       38.45       41.68       44.95       48.17       51.42    
        54.80       58.59       63.11       68.59       74.98       81.98       89.20       96.44       102.8       106.5    

 HEAD WILL BE SAVED ON UNIT   51 AT END OF TIME STEP   93, STRESS PERIOD    3

 DRAWDOWN WILL BE SAVED ON UNIT   52 AT END OF TIME STEP   93, STRESS PERIOD    3
1
  VOLUMETRIC BUDGET FOR ENTIRE MODEL AT END OF TIME STEP   93, STRESS PERIOD   3
  ------------------------------------------------------------------------------

     CUMULATIVE VOLUMES      L**3       RATES FOR THIS TIME STEP      L**3/T
     ------------------                 ------------------------

           IN:                                      IN:
           ---                                      ---
             STORAGE =     4417643.5000               STORAGE =       29441.0020
       CONSTANT HEAD =           0.0000         CONSTANT HEAD =           0.0000
               WELLS =           0.0000                 WELLS =           0.0000
       RIVER LEAKAGE =           0.0000         RIVER LEAKAGE =           0.0000
            RECHARGE =     5237870.5000              RECHARGE =       20261.7871

            TOTAL IN =     9655514.0000              TOTAL IN =       49702.7891

          OUT:                                     OUT:
          ----                                     ----
             STORAGE =      790712.7500               STORAGE =           0.0000
       CONSTANT HEAD =           0.0000         CONSTANT HEAD =           0.0000
               WELLS =       98832.8672                 WELLS =         509.4487
       RIVER LEAKAGE =     8765272.0000         RIVER LEAKAGE =       49185.9297
            RECHARGE =           0.0000              RECHARGE =           0.0000

           TOTAL OUT =     9654818.0000             TOTAL OUT =       49695.3789

            IN - OUT =         696.0000              IN - OUT =           7.4102

 PERCENT DISCREPANCY =           0.01     PERCENT DISCREPANCY =           0.01






         TIME SUMMARY AT END OF TIME STEP   93 IN STRESS PERIOD    3
                    SECONDS     MINUTES      HOURS       DAYS        YEARS
                    -----------------------------------------------------------
   TIME STEP LENGTH  86400.      1440.0      24.000      1.0000     2.73785E-03
 STRESS PERIOD TIME 8.03520E+06 1.33920E+05  2232.0      93.000     0.25462    
         TOTAL TIME 1.67616E+07 2.79360E+05  4656.0      194.00     0.53114    
1

 SOLVING FOR HEAD 

    ------------------------------------------------
       NWT REQUIRED            3 OUTER ITERATIONS 
       AND A TOTAL OF          3 INNER ITERATIONS.
    ------------------------------------------------

 OUTPUT CONTROL FOR STRESS PERIOD    3   TIME STEP   94
    SAVE HEAD FOR ALL LAYERS
    SAVE DRAWDOWN FOR ALL LAYERS
    SAVE BUDGET
    PRINT HEAD FOR ALL LAYERS
    PRINT BUDGET
1
              HEAD IN LAYER   1 AT END OF TIME STEP  94 IN STRESS PERIOD    3
  ---------------------------------------------------------------------------

            1           2           3           4           5           6           7           8           9          10
           11          12          13          14          15          16          17          18          19          20
 ........................................................................................................................
   1    0.000       0.000       0.000       0.000       0.000       10.55       10.40       10.84       11.53       11.46    
        10.21       7.335       2.107     -0.6181       5.735       21.59       31.95       37.49       0.000       0.000    
   2    0.000       0.000       0.000       0.000       8.356       7.927       7.123       7.817       9.321       9.603    
        8.734       6.552       2.479     -0.7741       8.325       23.35       33.64       39.55       0.000       0.000    
   3    0.000       0.000       0.000       6.322       5.985       3.972       3.098       3.696       5.177       5.736    
        5.391       4.365       2.732      -1.132       14.13       26.12       37.09       43.81       0.000       0.000    
   4    0.000       0.000       3.568       3.888       2.607     -0.9597     -0.5937     -0.7736      -1.116      -1.040    
      -0.9989     -0.7133       1.210      -1.228       19.05       32.39       42.14       50.77       0.000       0.000    
   5    0.000       0.000      0.1917     -0.2077      -1.335     -0.5192       4.860       8.227       11.40       12.08    
        9.883     -0.5205      -1.208      0.2192       26.06       39.69       53.40       64.47       75.39       0.000    
   6    0.000      -1.245      -1.434     -0.9897       1.797       10.71       16.08       19.74       22.36       23.91    
        23.64       21.53       22.92       28.09       40.99       53.45       67.81       72.89       77.85       0.000    
   7    0.000       9.730       11.30       13.17       16.31       21.38       25.79       29.18       31.21       34.21    
        35.82       37.07       40.06       45.61       54.89       65.14       74.19       80.24       0.000       0.000    
   8    0.000       16.03       20.34       22.97       25.99       29.79       33.56       36.92       39.77       42.69    
        45.29       48.07       51.97       57.56       65.03       73.21       80.70       88.79       0.000       0.000    
   9    0.000       0.000       28.09       29.77       32.34       35.54       38.94       42.25       45.38       48.50    
        51.64       55.14       59.48       65.00       71.70       79.03       86.47       94.44       102.3       107.2    
  10    0.000       0.000       31.85       33.20       35.51       38.45       41.68       44.95       48.17       51.42    
        54.80       58.59       63.11       68.59       74.98       81.98       89.20       96.44       102.8       106.5    

 HEAD WILL BE SAVED ON UNIT   51 AT END OF TIME STEP   94, STRESS PERIOD    3

 DRAWDOWN WILL BE SAVED ON UNIT   52 AT END OF TIME STEP   94, STRESS PERIOD    3
1
  VOLUMETRIC BUDGET FOR ENTIRE MODEL AT END OF TIME STEP   94, STRESS PERIOD   3
  ------------------------------------------------------------------------------

     CUMULATIVE VOLUMES      L**3       RATES FOR THIS TIME STEP      L**3/T
     ------------------                 ------------------------

           IN:                                      IN:
           ---                                      ---
             STORAGE =     4446867.5000               STORAGE =       29224.0879
       CONSTANT HEAD =           0.0000         CONSTANT HEAD =           0.0000
               WELLS =           0.0000                 WELLS =           0.0000
       RIVER LEAKAGE =           0.0000         RIVER LEAKAGE =           0.0000
            RECHARGE =     5258132.5000              RECHARGE =       20261.7871

            TOTAL IN =     9705000.0000              TOTAL IN =       49485.8750

          OUT:                                     OUT:
          ----                                     ----
             STORAGE =      790712.7500               STORAGE =           0.0000
       CONSTANT HEAD =           0.0000         CONSTANT HEAD =           0.0000
               WELLS =       99342.3125                 WELLS =         509.4487
       RIVER LEAKAGE =     8814241.0000         RIVER LEAKAGE =       48969.0703
            RECHARGE =           0.0000              RECHARGE =           0.0000

           TOTAL OUT =     9704296.0000             TOTAL OUT =       49478.5195

            IN - OUT =         704.0000              IN - OUT =           7.3555

 PERCENT DISCREPANCY =           0.01     PERCENT DISCREPANCY =           0.01






         TIME SUMMARY AT END OF TIME STEP   94 IN STRESS PERIOD    3
                    SECONDS     MINUTES      HOURS       DAYS        YEARS
                    -----------------------------------------------------------
   TIME STEP LENGTH  86400.      1440.0      24.000      1.0000     2.73785E-03
 STRESS PERIOD TIME 8.12160E+06 1.35360E+05  2256.0      94.000     0.25736    
         TOTAL TIME 1.68480E+07 2.80800E+05  4680.0      195.00     0.53388    
1

 SOLVING FOR HEAD 

    ------------------------------------------------
       NWT REQUIRED            3 OUTER ITERATIONS 
       AND A TOTAL OF          3 INNER ITERATIONS.
    ------------------------------------------------

 OUTPUT CONTROL FOR STRESS PERIOD    3   TIME STEP   95
    SAVE HEAD FOR ALL LAYERS
    SAVE DRAWDOWN FOR ALL LAYERS
    SAVE BUDGET
    PRINT HEAD FOR ALL LAYERS
    PRINT BUDGET
1
              HEAD IN LAYER   1 AT END OF TIME STEP  95 IN STRESS PERIOD    3
  ---------------------------------------------------------------------------

            1           2           3           4           5           6           7           8           9          10
           11          12          13          14          15          16          17          18          19          20
 ........................................................................................................................
   1    0.000       0.000       0.000       0.000       0.000       10.55       10.40       10.84       11.53       11.46    
        10.21       7.335       2.105     -0.6215       5.733       21.59       31.95       37.49       0.000       0.000    
   2    0.000       0.000       0.000       0.000       8.355       7.926       7.122       7.816       9.320       9.602    
        8.734       6.551       2.477     -0.7781       8.323       23.35       33.64       39.55       0.000       0.000    
   3    0.000       0.000       0.000       6.321       5.985       3.970       3.096       3.694       5.175       5.735    
        5.389       4.364       2.730      -1.137       14.13       26.12       37.09       43.81       0.000       0.000    
   4    0.000       0.000       3.566       3.887       2.605     -0.9639     -0.5974     -0.7777      -1.121      -1.045    
       -1.003     -0.7169       1.207      -1.232       19.05       32.39       42.14       50.77       0.000       0.000    
   5    0.000       0.000      0.1877     -0.2098      -1.339     -0.5230       4.858       8.225       11.40       12.07    
        9.881     -0.5244      -1.212      0.2177       26.06       39.68       53.40       64.47       75.39       0.000    
   6    0.000      -1.249      -1.438     -0.9941       1.793       10.71       16.08       19.74       22.36       23.90    
        23.64       21.53       22.92       28.09       40.99       53.45       67.81       72.89       77.85       0.000    
   7    0.000       9.728       11.30       13.17       16.31       21.38       25.79       29.18       31.21       34.21    
        35.82       37.07       40.06       45.61       54.89       65.14       74.19       80.24       0.000       0.000    
   8    0.000       16.03       20.34       22.97       25.99       29.79       33.56       36.92       39.77       42.69    
        45.29       48.07       51.97       57.56       65.03       73.20       80.70       88.79       0.000       0.000    
   9    0.000       0.000       28.09       29.77       32.34       35.54       38.94       42.25       45.38       48.50    
        51.64       55.14       59.48       65.00       71.69       79.03       86.47       94.44       102.3       107.2    
  10    0.000       0.000       31.85       33.20       35.51       38.45       41.68       44.95       48.17       51.42    
        54.80       58.59       63.11       68.59       74.98       81.98       89.20       96.44       102.8       106.5    

 HEAD WILL BE SAVED ON UNIT   51 AT END OF TIME STEP   95, STRESS PERIOD    3

 DRAWDOWN WILL BE SAVED ON UNIT   52 AT END OF TIME STEP   95, STRESS PERIOD    3
1
  VOLUMETRIC BUDGET FOR ENTIRE MODEL AT END OF TIME STEP   95, STRESS PERIOD   3
  ------------------------------------------------------------------------------

     CUMULATIVE VOLUMES      L**3       RATES FOR THIS TIME STEP      L**3/T
     ------------------                 ------------------------

           IN:                                      IN:
           ---                                      ---
             STORAGE =     4475877.0000               STORAGE =       29009.4824
       CONSTANT HEAD =           0.0000         CONSTANT HEAD =           0.0000
               WELLS =           0.0000                 WELLS =           0.0000
       RIVER LEAKAGE =           0.0000         RIVER LEAKAGE =           0.0000
            RECHARGE =     5278394.5000              RECHARGE =       20261.7871

            TOTAL IN =     9754272.0000              TOTAL IN =       49271.2695

          OUT:                                     OUT:
          ----                                     ----
             STORAGE =      790712.7500               STORAGE =           0.0000
       CONSTANT HEAD =           0.0000         CONSTANT HEAD =           0.0000
               WELLS =       99851.7578                 WELLS =         509.4487
       RIVER LEAKAGE =     8862996.0000         RIVER LEAKAGE =       48754.5195
            RECHARGE =           0.0000              RECHARGE =           0.0000

           TOTAL OUT =     9753560.0000             TOTAL OUT =       49263.9688

            IN - OUT =         712.0000              IN - OUT =           7.3008

 PERCENT DISCREPANCY =           0.01     PERCENT DISCREPANCY =           0.01






         TIME SUMMARY AT END OF TIME STEP   95 IN STRESS PERIOD    3
                    SECONDS     MINUTES      HOURS       DAYS        YEARS
                    -----------------------------------------------------------
   TIME STEP LENGTH  86400.      1440.0      24.000      1.0000     2.73785E-03
 STRESS PERIOD TIME 8.20800E+06 1.36800E+05  2280.0      95.000     0.26010    
         TOTAL TIME 1.69344E+07 2.82240E+05  4704.0      196.00     0.53662    
1

 SOLVING FOR HEAD 

    ------------------------------------------------
       NWT REQUIRED            3 OUTER ITERATIONS 
       AND A TOTAL OF          3 INNER ITERATIONS.
    ------------------------------------------------

 OUTPUT CONTROL FOR STRESS PERIOD    3   TIME STEP   96
    SAVE HEAD FOR ALL LAYERS
    SAVE DRAWDOWN FOR ALL LAYERS
    SAVE BUDGET
    PRINT HEAD FOR ALL LAYERS
    PRINT BUDGET
1
              HEAD IN LAYER   1 AT END OF TIME STEP  96 IN STRESS PERIOD    3
  ---------------------------------------------------------------------------

            1           2           3           4           5           6           7           8           9          10
           11          12          13          14          15          16          17          18          19          20
 ........................................................................................................................
   1    0.000       0.000       0.000       0.000       0.000       10.55       10.40       10.84       11.52       11.46    
        10.21       7.334       2.103     -0.6249       5.731       21.59       31.95       37.49       0.000       0.000    
   2    0.000       0.000       0.000       0.000       8.355       7.926       7.121       7.815       9.320       9.602    
        8.733       6.551       2.475     -0.7820       8.321       23.34       33.64       39.55       0.000       0.000    
   3    0.000       0.000       0.000       6.321       5.984       3.968       3.093       3.692       5.173       5.733    
        5.388       4.362       2.728      -1.141       14.12       26.12       37.09       43.81       0.000       0.000    
   4    0.000       0.000       3.565       3.886       2.602     -0.9680     -0.6011     -0.7818      -1.125      -1.049    
       -1.008     -0.7205       1.204      -1.236       19.05       32.39       42.14       50.77       0.000       0.000    
   5    0.000       0.000      0.1837     -0.2120      -1.343     -0.5269       4.855       8.223       11.40       12.07    
        9.879     -0.5282      -1.216      0.2162       26.06       39.68       53.40       64.47       75.39       0.000    
   6    0.000      -1.254      -1.442     -0.9985       1.789       10.70       16.08       19.74       22.36       23.90    
        23.64       21.53       22.92       28.09       40.99       53.45       67.81       72.89       77.84       0.000    
   7    0.000       9.726       11.30       13.17       16.31       21.38       25.79       29.18       31.21       34.20    
        35.82       37.07       40.06       45.61       54.89       65.14       74.19       80.24       0.000       0.000    
   8    0.000       16.03       20.33       22.97       25.99       29.79       33.56       36.92       39.77       42.69    
        45.29       48.06       51.97       57.56       65.03       73.20       80.70       88.79       0.000       0.000    
   9    0.000       0.000       28.09       29.77       32.34       35.54       38.94       42.25       45.38       48.50    
        51.64       55.14       59.48       65.00       71.69       79.03       86.47       94.44       102.3       107.2    
  10    0.000       0.000       31.85       33.20       35.51       38.45       41.68       44.95       48.17       51.42    
        54.80       58.59       63.11       68.59       74.98       81.97       89.20       96.44       102.8       106.5    

 HEAD WILL BE SAVED ON UNIT   51 AT END OF TIME STEP   96, STRESS PERIOD    3

 DRAWDOWN WILL BE SAVED ON UNIT   52 AT END OF TIME STEP   96, STRESS PERIOD    3
1
  VOLUMETRIC BUDGET FOR ENTIRE MODEL AT END OF TIME STEP   96, STRESS PERIOD   3
  ------------------------------------------------------------------------------

     CUMULATIVE VOLUMES      L**3       RATES FOR THIS TIME STEP      L**3/T
     ------------------                 ------------------------

           IN:                                      IN:
           ---                                      ---
             STORAGE =     4504674.0000               STORAGE =       28797.1582
       CONSTANT HEAD =           0.0000         CONSTANT HEAD =           0.0000
               WELLS =           0.0000                 WELLS =           0.0000
       RIVER LEAKAGE =           0.0000         RIVER LEAKAGE =           0.0000
            RECHARGE =     5298656.5000              RECHARGE =       20261.7871

            TOTAL IN =     9803330.0000              TOTAL IN =       49058.9453

          OUT:                                     OUT:
          ----                                     ----
             STORAGE =      790712.7500               STORAGE =           0.0000
       CONSTANT HEAD =           0.0000         CONSTANT HEAD =           0.0000
               WELLS =      100361.2031                 WELLS =         509.4487
       RIVER LEAKAGE =     8911538.0000         RIVER LEAKAGE =       48542.2500
            RECHARGE =           0.0000              RECHARGE =           0.0000

           TOTAL OUT =     9802612.0000             TOTAL OUT =       49051.6992

            IN - OUT =         718.0000              IN - OUT =           7.2461

 PERCENT DISCREPANCY =           0.01     PERCENT DISCREPANCY =           0.01






         TIME SUMMARY AT END OF TIME STEP   96 IN STRESS PERIOD    3
                    SECONDS     MINUTES      HOURS       DAYS        YEARS
                    -----------------------------------------------------------
   TIME STEP LENGTH  86400.      1440.0      24.000      1.0000     2.73785E-03
 STRESS PERIOD TIME 8.29440E+06 1.38240E+05  2304.0      96.000     0.26283    
         TOTAL TIME 1.70208E+07 2.83680E+05  4728.0      197.00     0.53936    
1

 SOLVING FOR HEAD 

    ------------------------------------------------
       NWT REQUIRED            3 OUTER ITERATIONS 
       AND A TOTAL OF          3 INNER ITERATIONS.
    ------------------------------------------------

 OUTPUT CONTROL FOR STRESS PERIOD    3   TIME STEP   97
    SAVE HEAD FOR ALL LAYERS
    SAVE DRAWDOWN FOR ALL LAYERS
    SAVE BUDGET
    PRINT HEAD FOR ALL LAYERS
    PRINT BUDGET
1
              HEAD IN LAYER   1 AT END OF TIME STEP  97 IN STRESS PERIOD    3
  ---------------------------------------------------------------------------

            1           2           3           4           5           6           7           8           9          10
           11          12          13          14          15          16          17          18          19          20
 ........................................................................................................................
   1    0.000       0.000       0.000       0.000       0.000       10.55       10.40       10.84       11.52       11.46    
        10.21       7.333       2.101     -0.6283       5.729       21.59       31.95       37.49       0.000       0.000    
   2    0.000       0.000       0.000       0.000       8.354       7.925       7.120       7.814       9.319       9.601    
        8.732       6.550       2.473     -0.7859       8.319       23.34       33.64       39.54       0.000       0.000    
   3    0.000       0.000       0.000       6.320       5.983       3.966       3.091       3.690       5.172       5.732    
        5.386       4.361       2.726      -1.145       14.12       26.12       37.09       43.80       0.000       0.000    
   4    0.000       0.000       3.564       3.885       2.600     -0.9721     -0.6048     -0.7859      -1.129      -1.053    
       -1.012     -0.7241       1.201      -1.240       19.05       32.39       42.14       50.77       0.000       0.000    
   5    0.000       0.000      0.1797     -0.2141      -1.348     -0.5307       4.853       8.221       11.40       12.07    
        9.877     -0.5320      -1.220      0.2147       26.06       39.68       53.40       64.47       75.39       0.000    
   6    0.000      -1.258      -1.445      -1.003       1.784       10.70       16.08       19.74       22.35       23.90    
        23.64       21.53       22.92       28.09       40.99       53.45       67.81       72.89       77.84       0.000    
   7    0.000       9.725       11.29       13.17       16.31       21.38       25.79       29.18       31.21       34.20    
        35.82       37.07       40.06       45.61       54.89       65.14       74.18       80.24       0.000       0.000    
   8    0.000       16.03       20.33       22.97       25.99       29.79       33.56       36.92       39.77       42.69    
        45.29       48.06       51.97       57.56       65.03       73.20       80.70       88.79       0.000       0.000    
   9    0.000       0.000       28.09       29.77       32.33       35.54       38.94       42.25       45.38       48.50    
        51.64       55.14       59.48       65.00       71.69       79.03       86.47       94.44       102.3       107.2    
  10    0.000       0.000       31.85       33.20       35.51       38.45       41.68       44.95       48.17       51.42    
        54.80       58.59       63.11       68.59       74.98       81.97       89.20       96.43       102.8       106.5    

 HEAD WILL BE SAVED ON UNIT   51 AT END OF TIME STEP   97, STRESS PERIOD    3

 DRAWDOWN WILL BE SAVED ON UNIT   52 AT END OF TIME STEP   97, STRESS PERIOD    3
1
  VOLUMETRIC BUDGET FOR ENTIRE MODEL AT END OF TIME STEP   97, STRESS PERIOD   3
  ------------------------------------------------------------------------------

     CUMULATIVE VOLUMES      L**3       RATES FOR THIS TIME STEP      L**3/T
     ------------------                 ------------------------

           IN:                                      IN:
           ---                                      ---
             STORAGE =     4533261.0000               STORAGE =       28587.0879
       CONSTANT HEAD =           0.0000         CONSTANT HEAD =           0.0000
               WELLS =           0.0000                 WELLS =           0.0000
       RIVER LEAKAGE =           0.0000         RIVER LEAKAGE =           0.0000
            RECHARGE =     5318918.5000              RECHARGE =       20261.7871

            TOTAL IN =     9852180.0000              TOTAL IN =       48848.8750

          OUT:                                     OUT:
          ----                                     ----
             STORAGE =      790712.7500               STORAGE =           0.0000
       CONSTANT HEAD =           0.0000         CONSTANT HEAD =           0.0000
               WELLS =      100870.6484                 WELLS =         509.4487
       RIVER LEAKAGE =     8959870.0000         RIVER LEAKAGE =       48332.2305
            RECHARGE =           0.0000              RECHARGE =           0.0000

           TOTAL OUT =     9851453.0000             TOTAL OUT =       48841.6797

            IN - OUT =         727.0000              IN - OUT =           7.1953

 PERCENT DISCREPANCY =           0.01     PERCENT DISCREPANCY =           0.01






         TIME SUMMARY AT END OF TIME STEP   97 IN STRESS PERIOD    3
                    SECONDS     MINUTES      HOURS       DAYS        YEARS
                    -----------------------------------------------------------
   TIME STEP LENGTH  86400.      1440.0      24.000      1.0000     2.73785E-03
 STRESS PERIOD TIME 8.38080E+06 1.39680E+05  2328.0      97.000     0.26557    
         TOTAL TIME 1.71072E+07 2.85120E+05  4752.0      198.00     0.54209    
1

 SOLVING FOR HEAD 

    ------------------------------------------------
       NWT REQUIRED            3 OUTER ITERATIONS 
       AND A TOTAL OF          3 INNER ITERATIONS.
    ------------------------------------------------

 OUTPUT CONTROL FOR STRESS PERIOD    3   TIME STEP   98
    SAVE HEAD FOR ALL LAYERS
    SAVE DRAWDOWN FOR ALL LAYERS
    SAVE BUDGET
    PRINT HEAD FOR ALL LAYERS
    PRINT BUDGET
1
              HEAD IN LAYER   1 AT END OF TIME STEP  98 IN STRESS PERIOD    3
  ---------------------------------------------------------------------------

            1           2           3           4           5           6           7           8           9          10
           11          12          13          14          15          16          17          18          19          20
 ........................................................................................................................
   1    0.000       0.000       0.000       0.000       0.000       10.55       10.40       10.84       11.52       11.46    
        10.21       7.332       2.098     -0.6316       5.726       21.59       31.95       37.49       0.000       0.000    
   2    0.000       0.000       0.000       0.000       8.353       7.924       7.119       7.814       9.318       9.600    
        8.732       6.549       2.471     -0.7898       8.317       23.34       33.64       39.54       0.000       0.000    
   3    0.000       0.000       0.000       6.319       5.982       3.964       3.088       3.687       5.170       5.730    
        5.385       4.360       2.725      -1.149       14.12       26.12       37.08       43.80       0.000       0.000    
   4    0.000       0.000       3.562       3.884       2.598     -0.9762     -0.6084     -0.7899      -1.133      -1.058    
       -1.016     -0.7276       1.199      -1.244       19.05       32.39       42.14       50.76       0.000       0.000    
   5    0.000       0.000      0.1757     -0.2162      -1.352     -0.5345       4.851       8.219       11.39       12.07    
        9.875     -0.5357      -1.224      0.2133       26.06       39.68       53.40       64.47       75.39       0.000    
   6    0.000      -1.262      -1.449      -1.007       1.780       10.70       16.08       19.74       22.35       23.90    
        23.64       21.53       22.92       28.08       40.98       53.45       67.80       72.89       77.84       0.000    
   7    0.000       9.723       11.29       13.17       16.31       21.38       25.79       29.18       31.21       34.20    
        35.82       37.06       40.06       45.60       54.89       65.14       74.18       80.23       0.000       0.000    
   8    0.000       16.03       20.33       22.97       25.99       29.79       33.56       36.91       39.77       42.69    
        45.29       48.06       51.97       57.56       65.03       73.20       80.70       88.79       0.000       0.000    
   9    0.000       0.000       28.09       29.77       32.33       35.54       38.94       42.25       45.38       48.50    
        51.64       55.14       59.48       65.00       71.69       79.03       86.47       94.44       102.3       107.2    
  10    0.000       0.000       31.85       33.20       35.51       38.45       41.68       44.95       48.17       51.42    
        54.80       58.58       63.11       68.58       74.98       81.97       89.20       96.43       102.8       106.5    

 HEAD WILL BE SAVED ON UNIT   51 AT END OF TIME STEP   98, STRESS PERIOD    3

 DRAWDOWN WILL BE SAVED ON UNIT   52 AT END OF TIME STEP   98, STRESS PERIOD    3
1
  VOLUMETRIC BUDGET FOR ENTIRE MODEL AT END OF TIME STEP   98, STRESS PERIOD   3
  ------------------------------------------------------------------------------

     CUMULATIVE VOLUMES      L**3       RATES FOR THIS TIME STEP      L**3/T
     ------------------                 ------------------------

           IN:                                      IN:
           ---                                      ---
             STORAGE =     4561640.0000               STORAGE =       28379.2422
       CONSTANT HEAD =           0.0000         CONSTANT HEAD =           0.0000
               WELLS =           0.0000                 WELLS =           0.0000
       RIVER LEAKAGE =           0.0000         RIVER LEAKAGE =           0.0000
            RECHARGE =     5339180.5000              RECHARGE =       20261.7871

            TOTAL IN =     9900820.0000              TOTAL IN =       48641.0312

          OUT:                                     OUT:
          ----                                     ----
             STORAGE =      790712.7500               STORAGE =           0.0000
       CONSTANT HEAD =           0.0000         CONSTANT HEAD =           0.0000
               WELLS =      101380.0938                 WELLS =         509.4487
       RIVER LEAKAGE =     9007994.0000         RIVER LEAKAGE =       48124.4375
            RECHARGE =           0.0000              RECHARGE =           0.0000

           TOTAL OUT =     9900087.0000             TOTAL OUT =       48633.8867

            IN - OUT =         733.0000              IN - OUT =           7.1445

 PERCENT DISCREPANCY =           0.01     PERCENT DISCREPANCY =           0.01






         TIME SUMMARY AT END OF TIME STEP   98 IN STRESS PERIOD    3
                    SECONDS     MINUTES      HOURS       DAYS        YEARS
                    -----------------------------------------------------------
   TIME STEP LENGTH  86400.      1440.0      24.000      1.0000     2.73785E-03
 STRESS PERIOD TIME 8.46720E+06 1.41120E+05  2352.0      98.000     0.26831    
         TOTAL TIME 1.71936E+07 2.86560E+05  4776.0      199.00     0.54483    
1

 SOLVING FOR HEAD 

    ------------------------------------------------
       NWT REQUIRED            3 OUTER ITERATIONS 
       AND A TOTAL OF          3 INNER ITERATIONS.
    ------------------------------------------------

 OUTPUT CONTROL FOR STRESS PERIOD    3   TIME STEP   99
    SAVE HEAD FOR ALL LAYERS
    SAVE DRAWDOWN FOR ALL LAYERS
    SAVE BUDGET
    PRINT HEAD FOR ALL LAYERS
    PRINT BUDGET
1
              HEAD IN LAYER   1 AT END OF TIME STEP  99 IN STRESS PERIOD    3
  ---------------------------------------------------------------------------

            1           2           3           4           5           6           7           8           9          10
           11          12          13          14          15          16          17          18          19          20
 ........................................................................................................................
   1    0.000       0.000       0.000       0.000       0.000       10.55       10.40       10.84       11.52       11.46    
        10.21       7.331       2.096     -0.6350       5.724       21.59       31.95       37.49       0.000       0.000    
   2    0.000       0.000       0.000       0.000       8.353       7.923       7.118       7.813       9.317       9.599    
        8.731       6.548       2.469     -0.7936       8.315       23.34       33.64       39.54       0.000       0.000    
   3    0.000       0.000       0.000       6.319       5.981       3.962       3.086       3.685       5.168       5.728    
        5.383       4.358       2.723      -1.153       14.12       26.12       37.08       43.80       0.000       0.000    
   4    0.000       0.000       3.561       3.882       2.595     -0.9802     -0.6120     -0.7940      -1.138      -1.062    
       -1.020     -0.7311       1.196      -1.248       19.04       32.39       42.13       50.76       0.000       0.000    
   5    0.000       0.000      0.1718     -0.2184      -1.356     -0.5383       4.848       8.217       11.39       12.07    
        9.873     -0.5394      -1.228      0.2119       26.06       39.68       53.40       64.47       75.39       0.000    
   6    0.000      -1.266      -1.452      -1.011       1.776       10.70       16.08       19.74       22.35       23.90    
        23.64       21.53       22.91       28.08       40.98       53.45       67.80       72.89       77.84       0.000    
   7    0.000       9.721       11.29       13.17       16.31       21.37       25.79       29.18       31.21       34.20    
        35.82       37.06       40.06       45.60       54.89       65.14       74.18       80.23       0.000       0.000    
   8    0.000       16.02       20.33       22.97       25.99       29.79       33.56       36.91       39.77       42.69    
        45.29       48.06       51.97       57.56       65.03       73.20       80.70       88.79       0.000       0.000    
   9    0.000       0.000       28.09       29.76       32.33       35.54       38.94       42.25       45.38       48.50    
        51.64       55.14       59.48       65.00       71.69       79.03       86.47       94.44       102.3       107.2    
  10    0.000       0.000       31.85       33.20       35.51       38.45       41.67       44.95       48.17       51.42    
        54.80       58.58       63.11       68.58       74.98       81.97       89.20       96.43       102.8       106.5    

 HEAD WILL BE SAVED ON UNIT   51 AT END OF TIME STEP   99, STRESS PERIOD    3

 DRAWDOWN WILL BE SAVED ON UNIT   52 AT END OF TIME STEP   99, STRESS PERIOD    3
1
  VOLUMETRIC BUDGET FOR ENTIRE MODEL AT END OF TIME STEP   99, STRESS PERIOD   3
  ------------------------------------------------------------------------------

     CUMULATIVE VOLUMES      L**3       RATES FOR THIS TIME STEP      L**3/T
     ------------------                 ------------------------

           IN:                                      IN:
           ---                                      ---
             STORAGE =     4589813.5000               STORAGE =       28173.5957
       CONSTANT HEAD =           0.0000         CONSTANT HEAD =           0.0000
               WELLS =           0.0000                 WELLS =           0.0000
       RIVER LEAKAGE =           0.0000         RIVER LEAKAGE =           0.0000
            RECHARGE =     5359442.5000              RECHARGE =       20261.7871

            TOTAL IN =     9949256.0000              TOTAL IN =       48435.3828

          OUT:                                     OUT:
          ----                                     ----
             STORAGE =      790712.7500               STORAGE =           0.0000
       CONSTANT HEAD =           0.0000         CONSTANT HEAD =           0.0000
               WELLS =      101889.5391                 WELLS =         509.4487
       RIVER LEAKAGE =     9055913.0000         RIVER LEAKAGE =       47918.8438
            RECHARGE =           0.0000              RECHARGE =           0.0000

           TOTAL OUT =     9948515.0000             TOTAL OUT =       48428.2930

            IN - OUT =         741.0000              IN - OUT =           7.0898

 PERCENT DISCREPANCY =           0.01     PERCENT DISCREPANCY =           0.01






         TIME SUMMARY AT END OF TIME STEP   99 IN STRESS PERIOD    3
                    SECONDS     MINUTES      HOURS       DAYS        YEARS
                    -----------------------------------------------------------
   TIME STEP LENGTH  86400.      1440.0      24.000      1.0000     2.73785E-03
 STRESS PERIOD TIME 8.55360E+06 1.42560E+05  2376.0      99.000     0.27105    
         TOTAL TIME 1.72800E+07 2.88000E+05  4800.0      200.00     0.54757    
1

 SOLVING FOR HEAD 

    ------------------------------------------------
       NWT REQUIRED            3 OUTER ITERATIONS 
       AND A TOTAL OF          3 INNER ITERATIONS.
    ------------------------------------------------

 OUTPUT CONTROL FOR STRESS PERIOD    3   TIME STEP  100
    SAVE HEAD FOR ALL LAYERS
    SAVE DRAWDOWN FOR ALL LAYERS
    SAVE BUDGET
    PRINT HEAD FOR ALL LAYERS
    PRINT BUDGET
1
              HEAD IN LAYER   1 AT END OF TIME STEP 100 IN STRESS PERIOD    3
  ---------------------------------------------------------------------------

            1           2           3           4           5           6           7           8           9          10
           11          12          13          14          15          16          17          18          19          20
 ........................................................................................................................
   1    0.000       0.000       0.000       0.000       0.000       10.55       10.40       10.84       11.52       11.46    
        10.21       7.331       2.094     -0.6383       5.722       21.59       31.95       37.49       0.000       0.000    
   2    0.000       0.000       0.000       0.000       8.352       7.922       7.117       7.812       9.317       9.599    
        8.730       6.547       2.467     -0.7974       8.313       23.34       33.64       39.54       0.000       0.000    
   3    0.000       0.000       0.000       6.318       5.980       3.960       3.084       3.683       5.166       5.727    
        5.381       4.357       2.721      -1.158       14.12       26.12       37.08       43.80       0.000       0.000    
   4    0.000       0.000       3.560       3.881       2.593     -0.9842     -0.6157     -0.7979      -1.142      -1.066    
       -1.024     -0.7347       1.193      -1.252       19.04       32.39       42.13       50.76       0.000       0.000    
   5    0.000       0.000      0.1679     -0.2205      -1.360     -0.5420       4.846       8.215       11.39       12.07    
        9.870     -0.5431      -1.231      0.2106       26.05       39.68       53.40       64.46       75.39       0.000    
   6    0.000      -1.270      -1.456      -1.015       1.772       10.70       16.08       19.74       22.35       23.90    
        23.64       21.52       22.91       28.08       40.98       53.45       67.80       72.89       77.84       0.000    
   7    0.000       9.719       11.29       13.16       16.31       21.37       25.78       29.18       31.21       34.20    
        35.82       37.06       40.06       45.60       54.89       65.14       74.18       80.23       0.000       0.000    
   8    0.000       16.02       20.33       22.97       25.99       29.79       33.56       36.91       39.77       42.69    
        45.29       48.06       51.96       57.56       65.03       73.20       80.70       88.79       0.000       0.000    
   9    0.000       0.000       28.09       29.76       32.33       35.54       38.94       42.25       45.38       48.50    
        51.64       55.13       59.48       65.00       71.69       79.03       86.47       94.44       102.3       107.2    
  10    0.000       0.000       31.84       33.20       35.50       38.44       41.67       44.95       48.17       51.42    
        54.80       58.58       63.11       68.58       74.98       81.97       89.20       96.43       102.8       106.5    

 HEAD WILL BE SAVED ON UNIT   51 AT END OF TIME STEP  100, STRESS PERIOD    3

 DRAWDOWN WILL BE SAVED ON UNIT   52 AT END OF TIME STEP  100, STRESS PERIOD    3
1
  VOLUMETRIC BUDGET FOR ENTIRE MODEL AT END OF TIME STEP  100, STRESS PERIOD   3
  ------------------------------------------------------------------------------

     CUMULATIVE VOLUMES      L**3       RATES FOR THIS TIME STEP      L**3/T
     ------------------                 ------------------------

           IN:                                      IN:
           ---                                      ---
             STORAGE =     4617783.5000               STORAGE =       27970.1172
       CONSTANT HEAD =           0.0000         CONSTANT HEAD =           0.0000
               WELLS =           0.0000                 WELLS =           0.0000
       RIVER LEAKAGE =           0.0000         RIVER LEAKAGE =           0.0000
            RECHARGE =     5379704.5000              RECHARGE =       20261.7871

            TOTAL IN =     9997488.0000              TOTAL IN =       48231.9062

          OUT:                                     OUT:
          ----                                     ----
             STORAGE =      790712.7500               STORAGE =           0.0000
       CONSTANT HEAD =           0.0000         CONSTANT HEAD =           0.0000
               WELLS =      102398.9844                 WELLS =         509.4487
       RIVER LEAKAGE =     9103628.0000         RIVER LEAKAGE =       47715.4141
            RECHARGE =           0.0000              RECHARGE =           0.0000

           TOTAL OUT =     9996740.0000             TOTAL OUT =       48224.8633

            IN - OUT =         748.0000              IN - OUT =           7.0430

 PERCENT DISCREPANCY =           0.01     PERCENT DISCREPANCY =           0.01






         TIME SUMMARY AT END OF TIME STEP  100 IN STRESS PERIOD    3
                    SECONDS     MINUTES      HOURS       DAYS        YEARS
                    -----------------------------------------------------------
   TIME STEP LENGTH  86400.      1440.0      24.000      1.0000     2.73785E-03
 STRESS PERIOD TIME 8.64000E+06 1.44000E+05  2400.0      100.00     0.27379    
         TOTAL TIME 1.73664E+07 2.89440E+05  4824.0      201.00     0.55031    
1

 Run end date and time (yyyy/mm/dd hh:mm:ss): 2014/12/14  6:00:16
 Elapsed run time:  0.119 Seconds

