                                  MODFLOW-NWT-SWR1 
      U.S. GEOLOGICAL SURVEY MODULAR FINITE-DIFFERENCE GROUNDWATER-FLOW MODEL
                            VERSION 1.0.9 07/01/2014
                    BASED ON MODFLOW-2005 VERSION 1.11.00 08/30/2013

 LIST FILE: flopy_model.list
                         UNIT    2

 OPENING flopy_model.nwt
 FILE TYPE:NWT   UNIT   32   STATUS:OLD    
 FORMAT:FORMATTED              ACCESS:SEQUENTIAL          

 OPENING flopy_model.dis
 FILE TYPE:DIS   UNIT   11   STATUS:OLD    
 FORMAT:FORMATTED              ACCESS:SEQUENTIAL          

 OPENING flopy_model.bas
 FILE TYPE:BAS6   UNIT   13   STATUS:OLD    
 FORMAT:FORMATTED              ACCESS:SEQUENTIAL          

 OPENING flopy_model.upw
 FILE TYPE:UPW   UNIT   31   STATUS:OLD    
 FORMAT:FORMATTED              ACCESS:SEQUENTIAL          

 OPENING flopy_model.wel
 FILE TYPE:WEL   UNIT   20   STATUS:OLD    
 FORMAT:FORMATTED              ACCESS:SEQUENTIAL          

 OPENING flopy_model.riv
 FILE TYPE:RIV   UNIT   18   STATUS:OLD    
 FORMAT:FORMATTED              ACCESS:SEQUENTIAL          

 OPENING flopy_model.rch
 FILE TYPE:RCH   UNIT   19   STATUS:OLD    
 FORMAT:FORMATTED              ACCESS:SEQUENTIAL          

 OPENING flopy_model.oc
 FILE TYPE:OC   UNIT   14   STATUS:OLD    
 FORMAT:FORMATTED              ACCESS:SEQUENTIAL          

 OPENING flopy_model.hds
 FILE TYPE:DATA(BINARY)   UNIT   51   STATUS:REPLACE
 FORMAT:UNFORMATTED            ACCESS:STREAM              

 OPENING flopy_model.ddn
 FILE TYPE:DATA(BINARY)   UNIT   52   STATUS:REPLACE
 FORMAT:UNFORMATTED            ACCESS:STREAM              

 OPENING flopy_model.cbc
 FILE TYPE:DATA(BINARY)   UNIT   53   STATUS:REPLACE
 FORMAT:UNFORMATTED            ACCESS:STREAM              

 BAS -- BASIC PACKAGE, VERSION 7, 5/2/2005 INPUT READ FROM UNIT   13

 MODFLOW was compiled using mixed precision
 Precision of REAL variables:           6
 Precision of DOUBLE PRECISION variables:          15

 DISCRETIZATION INPUT DATA READ FROM UNIT   11
 # Discretization file for MODFLOW, generated by Flopy.
    1 LAYERS        10 ROWS        20 COLUMNS
    3 STRESS PERIOD(S) IN SIMULATION
 MODEL TIME UNIT IS DAYS
 MODEL LENGTH UNIT IS METERS
  Confining bed flag for each layer:
   0

                     DELR =   2857.99    

                     DELC =   2616.01    

 TOP ELEVATION OF LAYER 1 =   0.00000    

   MODEL LAYER BOTTOM EL. =  -50.0000     FOR LAYER   1


 STRESS PERIOD     LENGTH       TIME STEPS     MULTIPLIER FOR DELT    SS FLAG
 ----------------------------------------------------------------------------
        1         1.000000          1                    1.000         SS
        2         100.0000        100                    1.000         TR
        3         100.0000        100                    1.000         TR

 COMBINED STEADY-STATE AND TRANSIENT SIMULATION




 # Basic package file for MODFLOW, generated by Flopy.                           
 THE FREE FORMAT OPTION HAS BEEN SELECTED



                     BOUNDARY ARRAY FOR LAYER   1
 READING ON UNIT   13 WITH FORMAT: (20I10)             

 AQUIFER HEAD WILL BE SET TO   0.0000     AT ALL NO-FLOW NODES (IBOUND=0).



                       INITIAL HEAD FOR LAYER   1
 READING ON UNIT   13 WITH FORMAT: (20G15.6)           
 # Output control package file for MODFLOW, generated by Flopy. Output control by words option

 OUTPUT CONTROL IS SPECIFIED ONLY AT TIME STEPS FOR WHICH OUTPUT IS DESIRED
 HEAD PRINT FORMAT CODE IS   0    DRAWDOWN PRINT FORMAT CODE IS   0
 HEADS WILL BE SAVED ON UNIT   51    DRAWDOWNS WILL BE SAVED ON UNIT   52
 # NWT for MODFLOW-NWT, generated by Flopy.

 NWT1 -- Newton Solver, VERSION 1.0.9, 07/01/2014
         INPUT READ FROM UNIT 32

 COMPLEX OPTION:
 DEFAULT SOLVER INPUT VALUES REFLECT STRONGLY NONLINEAR MODEL
 ***GMRES linear solver will be used***

   CONVERGENCE CRITERION OF   0.100000E-03 FOR HEAD SOLUTION
   AND A TOLERANCE OF   0.500000E+03 FOR FLOW SOLUTION AND 
   A MAXIMUM OF   100 OUTER ITERATIONS. 


   D-B-D REDUCTION FACTOR OF    0.850000E+00 AND 
   A D-B-D INCREASE FACTOR OF    0.100000E-04 AND 
   A D-B-D RELAXATION OF    0.000000E+00 AND 
   A MOMENTUM FACTOR OF    0.100000E+00 .


   BACKTRACKING IS ACTIVE 
   THE MAXIMUM NUMBER OF BACKTRACKS IS    50 AND 
   THE BACKTRACKING TOLERANCE IS    0.110000E+01 AND
   THE BACKTRACKING REDUCTION FACTOR IS    0.700000E+00

 GMRES -- LINEAR SOLUTION BY GMRES PACKAGE 
     adapted for HYDROTHERM by Kipp and others (2008)
     using software originally developed by Saad (1990) 32
     using algorithms described in Saad (2003)

 UPW1 -- UPSTREAM WEIGHTING FLOW PACKAGE, VERSION 1.0.6, 12/05/2012
         INPUT READ FROM UNIT 31

 # UPW for MODFLOW-NWT, generated by Flopy.
 No named parameters

   LAYER FLAGS:
 LAYER       LAYTYP          LAYAVG    CHANI           LAYVKA           LAYWET
 ---------------------------------------------------------------------------
    1             1             1     1.000E+00             1             0

   INTERPRETATION OF LAYER FLAGS:
                        INTERBLOCK     HORIZONTAL    DATA IN
         LAYER TYPE   TRANSMISSIVITY   ANISOTROPY   ARRAY VKA   WETTABILITY
 LAYER   (LAYTYP)        (LAYAVG)      (CHANI)     (LAYVKA)       (LAYWET)
 ---------------------------------------------------------------------------
    1   CONVERTIBLE   LOGARITHMIC     1.000E+00    ANISOTROPY  NON-WETTABLE



              HYD. COND. ALONG ROWS FOR LAYER   1
 READING ON UNIT   31 WITH FORMAT: (20G15.6)           

  HORIZ. TO VERTICAL ANI. =   1.00000     FOR LAYER   1

         SPECIFIC STORAGE =  1.000000E-04 FOR LAYER   1



                     SPECIFIC YIELD FOR LAYER   1
 READING ON UNIT   31 WITH FORMAT: (20G15.6)           

 WEL -- WELL PACKAGE, VERSION 1.0.6, 12/05/2012 INPUT READ FROM UNIT   20
 # Well file for MODFLOW, generated by Flopy.
 No named parameters
 MAXIMUM OF      4 ACTIVE WELLS AT ONE TIME
 No named parameters
  PHIRAMP WILL BE SET TO A DEFAULT VALUE OF 0.05
  WELLS WITH REDUCED PUMPING WILL BE REPORTED TO THE MAIN LISTING FILE


     0 Well parameters

 RIV -- RIVER PACKAGE, VERSION 7, 5/2/2005 INPUT READ FROM UNIT   18
 # RIV for MODFLOW, generated by Flopy.
 No named parameters
 MAXIMUM OF     22 ACTIVE RIVER REACHES AT ONE TIME


     0 River parameters

 RCH -- RECHARGE PACKAGE, VERSION 7, 5/2/2005 INPUT READ FROM UNIT   19
 # RCH for MODFLOW, generated by Flopy.
 No named parameters
 OPTION 3 -- RECHARGE TO HIGHEST ACTIVE NODE IN EACH VERTICAL COLUMN


     0 Recharge parameters
1
                            STRESS PERIOD NO.    1, LENGTH =   1.000000    
                            -----------------------------------------------

                              NUMBER OF TIME STEPS =     1

                               MULTIPLIER FOR DELT =     1.000

                            INITIAL TIME STEP SIZE =   1.000000    

 WELL NO.  LAYER   ROW   COL   STRESS RATE         
 --------------------------------------------------
      1      1      8     10      -40.42    
      2      1      8     15      -40.42    
      3      1      3     16      -40.42    
      4      1      2      7      -40.42    

      4 WELLS

 REACH NO.  LAYER   ROW   COL     STAGE      CONDUCTANCE     BOTTOM EL.         
 -------------------------------------------------------------------------------
      1      1      1     14       7.202          0.1368E+05       5.000    
      2      1      2     14       7.202          0.1361E+05       5.000    
      3      1      3     14       7.202          0.1216E+05       5.000    
      4      1      4      6       7.202          0.1098E+05       5.000    
      5      1      4      7       7.202          0.1140E+05       5.000    
      6      1      4      8       7.202          0.1188E+05       5.000    
      7      1      4      9       7.202          0.1314E+05       5.000    
      8      1      4     10       7.202          0.1208E+05       5.000    
      9      1      4     11       7.202          0.1078E+05       5.000    
     10      1      4     12       7.202           5226.           5.000    
     11      1      4     14       7.202          0.1502E+05       5.000    
     12      1      5      3       7.202           692.5           5.000    
     13      1      5      4       7.202           2057.           5.000    
     14      1      5      5       7.202          0.1353E+05       5.000    
     15      1      5      6       7.202           5979.           5.000    
     16      1      5     12       7.202           8415.           5.000    
     17      1      5     13       7.202          0.1685E+05       5.000    
     18      1      5     14       7.202           5216.           5.000    
     19      1      6      2       7.202          0.1213E+05       5.000    
     20      1      6      3       7.202          0.1814E+05       5.000    
     21      1      6      4       7.202          0.1032E+05       5.000    
     22      1      6      5       7.202           1334.           5.000    

     22 RIVER REACHES



                           RECHARGE
 READING ON UNIT   19 WITH FORMAT: (20G15.6)           

 SOLVING FOR HEAD 

    ------------------------------------------------
       NWT REQUIRED            7 OUTER ITERATIONS 
       AND A TOTAL OF        104 INNER ITERATIONS.
    ------------------------------------------------

 OUTPUT CONTROL FOR STRESS PERIOD    1   TIME STEP    1
    SAVE HEAD FOR ALL LAYERS
    SAVE DRAWDOWN FOR ALL LAYERS
    SAVE BUDGET
    PRINT HEAD FOR ALL LAYERS
    PRINT BUDGET
1
              HEAD IN LAYER   1 AT END OF TIME STEP   1 IN STRESS PERIOD    1
  ---------------------------------------------------------------------------

            1           2           3           4           5           6           7           8           9          10
           11          12          13          14          15          16          17          18          19          20
 ........................................................................................................................
   1    0.000       0.000       0.000       0.000       0.000       7.200       7.190       7.212       7.230       7.240    
        7.241       7.235       7.219       7.203       7.227       7.257       7.286       7.303       0.000       0.000    
   2    0.000       0.000       0.000       0.000       7.212       7.196       7.152       7.203       7.224       7.234    
        7.236       7.231       7.219       7.203       7.226       7.246       7.284       7.306       0.000       0.000    
   3    0.000       0.000       0.000       0.000       7.213       7.203       7.194       7.206       7.217       7.223    
        7.224       7.222       7.217       7.202       7.225       7.209       7.283       7.313       0.000       0.000    
   4    0.000       0.000       0.000       7.213       7.211       7.202       7.202       7.202       7.203       7.203    
        7.203       7.203       7.210       7.202       7.244       7.268       7.309       7.334       0.000       0.000    
   5    0.000       0.000       7.204       7.204       7.202       7.204       7.225       7.233       7.236       7.234    
        7.228       7.204       7.203       7.206       7.266       7.303       7.338       7.365       7.389       0.000    
   6    0.000       7.202       7.202       7.203       7.213       7.241       7.257       7.263       7.262       7.257    
        7.257       7.254       7.257       7.266       7.295       7.330       7.363       7.385       7.395       0.000    
   7    0.000       7.244       7.249       7.255       7.263       7.277       7.285       7.286       7.278       7.264    
        7.277       7.286       7.292       7.298       7.308       7.348       7.381       7.401       0.000       0.000    
   8    0.000       7.269       7.284       7.291       7.298       7.305       7.308       7.304       7.287       7.237    
        7.288       7.308       7.317       7.315       7.285       7.358       7.398       7.422       0.000       0.000    
   9    0.000       0.000       7.313       7.317       7.321       7.325       7.325       7.321       7.310       7.297    
        7.313       7.328       7.337       7.342       7.347       7.384       7.418       7.448       7.482       7.499    
  10    0.000       0.000       7.327       7.329       7.333       7.335       7.335       7.331       7.324       7.320    
        7.328       7.339       7.349       7.358       7.371       7.398       7.429       7.458       7.484       7.499    

 HEAD WILL BE SAVED ON UNIT   51 AT END OF TIME STEP    1, STRESS PERIOD    1

 DRAWDOWN WILL BE SAVED ON UNIT   52 AT END OF TIME STEP    1, STRESS PERIOD    1
1
  VOLUMETRIC BUDGET FOR ENTIRE MODEL AT END OF TIME STEP    1, STRESS PERIOD   1
  ------------------------------------------------------------------------------

     CUMULATIVE VOLUMES      L**3       RATES FOR THIS TIME STEP      L**3/T
     ------------------                 ------------------------

           IN:                                      IN:
           ---                                      ---
             STORAGE =           0.0000               STORAGE =           0.0000
       CONSTANT HEAD =           0.0000         CONSTANT HEAD =           0.0000
               WELLS =           0.0000                 WELLS =           0.0000
       RIVER LEAKAGE =           0.0000         RIVER LEAKAGE =           0.0000
            RECHARGE =         430.4229              RECHARGE =         430.4229

            TOTAL IN =         430.4229              TOTAL IN =         430.4229

          OUT:                                     OUT:
          ----                                     ----
             STORAGE =           0.0000               STORAGE =           0.0000
       CONSTANT HEAD =           0.0000         CONSTANT HEAD =           0.0000
               WELLS =         161.6886                 WELLS =         161.6886
       RIVER LEAKAGE =         268.8873         RIVER LEAKAGE =         268.8873
            RECHARGE =           0.0000              RECHARGE =           0.0000

           TOTAL OUT =         430.5760             TOTAL OUT =         430.5760

            IN - OUT =          -0.1530              IN - OUT =          -0.1530

 PERCENT DISCREPANCY =          -0.04     PERCENT DISCREPANCY =          -0.04






         TIME SUMMARY AT END OF TIME STEP    1 IN STRESS PERIOD    1
                    SECONDS     MINUTES      HOURS       DAYS        YEARS
                    -----------------------------------------------------------
   TIME STEP LENGTH  86400.      1440.0      24.000      1.0000     2.73785E-03
 STRESS PERIOD TIME  86400.      1440.0      24.000      1.0000     2.73785E-03
         TOTAL TIME  86400.      1440.0      24.000      1.0000     2.73785E-03
1
1
                            STRESS PERIOD NO.    2, LENGTH =   100.0000    
                            -----------------------------------------------

                              NUMBER OF TIME STEPS =   100

                               MULTIPLIER FOR DELT =     1.000

                            INITIAL TIME STEP SIZE =   1.000000    

 WELL NO.  LAYER   ROW   COL   STRESS RATE         
 --------------------------------------------------
      1      1      8     10      -63.65    
      2      1      8     15      -63.65    
      3      1      3     16      -63.65    
      4      1      2      7      -63.65    

      4 WELLS

 REACH NO.  LAYER   ROW   COL     STAGE      CONDUCTANCE     BOTTOM EL.         
 -------------------------------------------------------------------------------
      1      1      1     14       7.844          0.1368E+05       5.000    
      2      1      2     14       7.844          0.1361E+05       5.000    
      3      1      3     14       7.844          0.1216E+05       5.000    
      4      1      4      6       7.844          0.1098E+05       5.000    
      5      1      4      7       7.844          0.1140E+05       5.000    
      6      1      4      8       7.844          0.1188E+05       5.000    
      7      1      4      9       7.844          0.1314E+05       5.000    
      8      1      4     10       7.844          0.1208E+05       5.000    
      9      1      4     11       7.844          0.1078E+05       5.000    
     10      1      4     12       7.844           5226.           5.000    
     11      1      4     14       7.844          0.1502E+05       5.000    
     12      1      5      3       7.844           692.5           5.000    
     13      1      5      4       7.844           2057.           5.000    
     14      1      5      5       7.844          0.1353E+05       5.000    
     15      1      5      6       7.844           5979.           5.000    
     16      1      5     12       7.844           8415.           5.000    
     17      1      5     13       7.844          0.1685E+05       5.000    
     18      1      5     14       7.844           5216.           5.000    
     19      1      6      2       7.844          0.1213E+05       5.000    
     20      1      6      3       7.844          0.1814E+05       5.000    
     21      1      6      4       7.844          0.1032E+05       5.000    
     22      1      6      5       7.844           1334.           5.000    

     22 RIVER REACHES



                           RECHARGE
 READING ON UNIT   19 WITH FORMAT: (20G15.6)           

 SOLVING FOR HEAD 

    ------------------------------------------------
       NWT REQUIRED            4 OUTER ITERATIONS 
       AND A TOTAL OF          5 INNER ITERATIONS.
    ------------------------------------------------

 OUTPUT CONTROL FOR STRESS PERIOD    2   TIME STEP    1
    SAVE HEAD FOR ALL LAYERS
    SAVE DRAWDOWN FOR ALL LAYERS
    SAVE BUDGET
    PRINT HEAD FOR ALL LAYERS
    PRINT BUDGET
1
              HEAD IN LAYER   1 AT END OF TIME STEP   1 IN STRESS PERIOD    2
  ---------------------------------------------------------------------------

            1           2           3           4           5           6           7           8           9          10
           11          12          13          14          15          16          17          18          19          20
 ........................................................................................................................
   1    0.000       0.000       0.000       0.000       0.000       7.200       7.190       7.212       7.230       7.240    
        7.242       7.235       7.221       7.373       7.228       7.257       7.286       7.303       0.000       0.000    
   2    0.000       0.000       0.000       0.000       7.212       7.196       7.151       7.203       7.224       7.234    
        7.236       7.232       7.220       7.372       7.227       7.246       7.284       7.306       0.000       0.000    
   3    0.000       0.000       0.000       0.000       7.213       7.204       7.195       7.207       7.218       7.223    
        7.225       7.223       7.218       7.359       7.226       7.208       7.283       7.313       0.000       0.000    
   4    0.000       0.000       0.000       7.214       7.212       7.346       7.350       7.356       7.368       7.358    
        7.345       7.282       7.212       7.385       7.245       7.268       7.309       7.334       0.000       0.000    
   5    0.000       0.000       7.217       7.238       7.371       7.292       7.227       7.235       7.237       7.235    
        7.230       7.321       7.400       7.285       7.266       7.303       7.338       7.365       7.389       0.000    
   6    0.000       7.359       7.410       7.341       7.236       7.242       7.257       7.263       7.262       7.257    
        7.257       7.254       7.258       7.267       7.295       7.330       7.363       7.385       7.395       0.000    
   7    0.000       7.245       7.250       7.255       7.264       7.277       7.285       7.286       7.278       7.264    
        7.277       7.286       7.292       7.298       7.308       7.348       7.381       7.401       0.000       0.000    
   8    0.000       7.269       7.284       7.291       7.298       7.305       7.308       7.304       7.287       7.236    
        7.288       7.308       7.317       7.315       7.284       7.358       7.398       7.423       0.000       0.000    
   9    0.000       0.000       7.313       7.317       7.321       7.325       7.325       7.321       7.310       7.297    
        7.313       7.328       7.337       7.342       7.347       7.384       7.418       7.448       7.482       7.499    
  10    0.000       0.000       7.327       7.330       7.333       7.335       7.335       7.331       7.324       7.320    
        7.328       7.339       7.349       7.358       7.371       7.398       7.429       7.458       7.484       7.499    

 HEAD WILL BE SAVED ON UNIT   51 AT END OF TIME STEP    1, STRESS PERIOD    2

 DRAWDOWN WILL BE SAVED ON UNIT   52 AT END OF TIME STEP    1, STRESS PERIOD    2
1
  VOLUMETRIC BUDGET FOR ENTIRE MODEL AT END OF TIME STEP    1, STRESS PERIOD   2
  ------------------------------------------------------------------------------

     CUMULATIVE VOLUMES      L**3       RATES FOR THIS TIME STEP      L**3/T
     ------------------                 ------------------------

           IN:                                      IN:
           ---                                      ---
             STORAGE =          86.1658               STORAGE =          86.1658
       CONSTANT HEAD =           0.0000         CONSTANT HEAD =           0.0000
               WELLS =           0.0000                 WELLS =           0.0000
       RIVER LEAKAGE =      109013.1641         RIVER LEAKAGE =      109013.1641
            RECHARGE =        1030.1555              RECHARGE =         599.7326

            TOTAL IN =      110129.4844              TOTAL IN =      109699.0625

          OUT:                                     OUT:
          ----                                     ----
             STORAGE =      109446.2734               STORAGE =      109446.2734
       CONSTANT HEAD =           0.0000         CONSTANT HEAD =           0.0000
               WELLS =         416.2793                 WELLS =         254.5907
       RIVER LEAKAGE =         268.8873         RIVER LEAKAGE =           0.0000
            RECHARGE =           0.0000              RECHARGE =           0.0000

           TOTAL OUT =      110131.4453             TOTAL OUT =      109700.8672

            IN - OUT =          -1.9609              IN - OUT =          -1.8047

 PERCENT DISCREPANCY =          -0.00     PERCENT DISCREPANCY =          -0.00






         TIME SUMMARY AT END OF TIME STEP    1 IN STRESS PERIOD    2
                    SECONDS     MINUTES      HOURS       DAYS        YEARS
                    -----------------------------------------------------------
   TIME STEP LENGTH  86400.      1440.0      24.000      1.0000     2.73785E-03
 STRESS PERIOD TIME  86400.      1440.0      24.000      1.0000     2.73785E-03
         TOTAL TIME 1.72800E+05  2880.0      48.000      2.0000     5.47570E-03
1

 SOLVING FOR HEAD 

    ------------------------------------------------
       NWT REQUIRED            4 OUTER ITERATIONS 
       AND A TOTAL OF          5 INNER ITERATIONS.
    ------------------------------------------------

 OUTPUT CONTROL FOR STRESS PERIOD    2   TIME STEP    2
    SAVE HEAD FOR ALL LAYERS
    SAVE DRAWDOWN FOR ALL LAYERS
    SAVE BUDGET
    PRINT HEAD FOR ALL LAYERS
    PRINT BUDGET
1
              HEAD IN LAYER   1 AT END OF TIME STEP   2 IN STRESS PERIOD    2
  ---------------------------------------------------------------------------

            1           2           3           4           5           6           7           8           9          10
           11          12          13          14          15          16          17          18          19          20
 ........................................................................................................................
   1    0.000       0.000       0.000       0.000       0.000       7.200       7.190       7.212       7.230       7.240    
        7.242       7.235       7.223       7.496       7.231       7.257       7.286       7.303       0.000       0.000    
   2    0.000       0.000       0.000       0.000       7.212       7.196       7.150       7.203       7.224       7.234    
        7.236       7.232       7.222       7.495       7.229       7.246       7.284       7.306       0.000       0.000    
   3    0.000       0.000       0.000       0.000       7.213       7.206       7.198       7.209       7.219       7.225    
        7.226       7.223       7.219       7.477       7.227       7.208       7.283       7.313       0.000       0.000    
   4    0.000       0.000       0.000       7.214       7.215       7.457       7.462       7.471       7.490       7.475    
        7.455       7.350       7.216       7.514       7.247       7.268       7.309       7.334       0.000       0.000    
   5    0.000       0.000       7.231       7.271       7.493       7.368       7.230       7.236       7.239       7.237    
        7.232       7.416       7.535       7.355       7.267       7.303       7.338       7.365       7.389       0.000    
   6    0.000       7.478       7.549       7.448       7.259       7.243       7.257       7.263       7.262       7.257    
        7.257       7.256       7.260       7.268       7.295       7.330       7.363       7.385       7.395       0.000    
   7    0.000       7.246       7.252       7.257       7.264       7.277       7.285       7.286       7.278       7.264    
        7.277       7.286       7.293       7.298       7.308       7.348       7.381       7.402       0.000       0.000    
   8    0.000       7.269       7.284       7.291       7.298       7.305       7.308       7.304       7.287       7.236    
        7.288       7.308       7.317       7.315       7.284       7.358       7.398       7.423       0.000       0.000    
   9    0.000       0.000       7.313       7.317       7.321       7.325       7.325       7.321       7.310       7.297    
        7.313       7.328       7.337       7.342       7.347       7.384       7.418       7.448       7.482       7.499    
  10    0.000       0.000       7.327       7.330       7.333       7.335       7.335       7.331       7.324       7.320    
        7.328       7.339       7.349       7.358       7.371       7.399       7.429       7.458       7.484       7.499    

 HEAD WILL BE SAVED ON UNIT   51 AT END OF TIME STEP    2, STRESS PERIOD    2

 DRAWDOWN WILL BE SAVED ON UNIT   52 AT END OF TIME STEP    2, STRESS PERIOD    2
1
  VOLUMETRIC BUDGET FOR ENTIRE MODEL AT END OF TIME STEP    2, STRESS PERIOD   2
  ------------------------------------------------------------------------------

     CUMULATIVE VOLUMES      L**3       RATES FOR THIS TIME STEP      L**3/T
     ------------------                 ------------------------

           IN:                                      IN:
           ---                                      ---
             STORAGE =         169.4550               STORAGE =          83.2893
       CONSTANT HEAD =           0.0000         CONSTANT HEAD =           0.0000
               WELLS =           0.0000                 WELLS =           0.0000
       RIVER LEAKAGE =      192196.2500         RIVER LEAKAGE =       83183.0859
            RECHARGE =        1629.8882              RECHARGE =         599.7326

            TOTAL IN =      193995.5938              TOTAL IN =       83866.1094

          OUT:                                     OUT:
          ----                                     ----
             STORAGE =      193059.1562               STORAGE =       83612.8828
       CONSTANT HEAD =           0.0000         CONSTANT HEAD =           0.0000
               WELLS =         670.8700                 WELLS =         254.5907
       RIVER LEAKAGE =         268.8873         RIVER LEAKAGE =           0.0000
            RECHARGE =           0.0000              RECHARGE =           0.0000

           TOTAL OUT =      193998.9219             TOTAL OUT =       83867.4766

            IN - OUT =          -3.3281              IN - OUT =          -1.3672

 PERCENT DISCREPANCY =          -0.00     PERCENT DISCREPANCY =          -0.00






         TIME SUMMARY AT END OF TIME STEP    2 IN STRESS PERIOD    2
                    SECONDS     MINUTES      HOURS       DAYS        YEARS
                    -----------------------------------------------------------
   TIME STEP LENGTH  86400.      1440.0      24.000      1.0000     2.73785E-03
 STRESS PERIOD TIME 1.72800E+05  2880.0      48.000      2.0000     5.47570E-03
         TOTAL TIME 2.59200E+05  4320.0      72.000      3.0000     8.21355E-03
1

 SOLVING FOR HEAD 

    ------------------------------------------------
       NWT REQUIRED            4 OUTER ITERATIONS 
       AND A TOTAL OF          5 INNER ITERATIONS.
    ------------------------------------------------

 OUTPUT CONTROL FOR STRESS PERIOD    2   TIME STEP    3
    SAVE HEAD FOR ALL LAYERS
    SAVE DRAWDOWN FOR ALL LAYERS
    SAVE BUDGET
    PRINT HEAD FOR ALL LAYERS
    PRINT BUDGET
1
              HEAD IN LAYER   1 AT END OF TIME STEP   3 IN STRESS PERIOD    2
  ---------------------------------------------------------------------------

            1           2           3           4           5           6           7           8           9          10
           11          12          13          14          15          16          17          18          19          20
 ........................................................................................................................
   1    0.000       0.000       0.000       0.000       0.000       7.200       7.190       7.212       7.230       7.240    
        7.242       7.235       7.227       7.584       7.234       7.257       7.286       7.303       0.000       0.000    
   2    0.000       0.000       0.000       0.000       7.212       7.196       7.150       7.203       7.224       7.234    
        7.236       7.232       7.225       7.585       7.232       7.246       7.284       7.306       0.000       0.000    
   3    0.000       0.000       0.000       0.000       7.213       7.209       7.201       7.212       7.221       7.227    
        7.228       7.225       7.221       7.565       7.229       7.207       7.283       7.314       0.000       0.000    
   4    0.000       0.000       0.000       7.215       7.220       7.541       7.547       7.557       7.579       7.562    
        7.539       7.410       7.222       7.605       7.248       7.268       7.309       7.334       0.000       0.000    
   5    0.000       0.000       7.245       7.303       7.582       7.434       7.234       7.239       7.241       7.239    
        7.235       7.493       7.627       7.415       7.268       7.303       7.338       7.365       7.389       0.000    
   6    0.000       7.566       7.642       7.531       7.282       7.245       7.257       7.263       7.262       7.257    
        7.258       7.257       7.262       7.269       7.295       7.330       7.363       7.385       7.395       0.000    
   7    0.000       7.249       7.255       7.259       7.264       7.277       7.285       7.286       7.278       7.264    
        7.277       7.286       7.293       7.299       7.308       7.348       7.381       7.402       0.000       0.000    
   8    0.000       7.269       7.284       7.291       7.298       7.305       7.308       7.304       7.287       7.235    
        7.288       7.308       7.317       7.315       7.283       7.358       7.398       7.423       0.000       0.000    
   9    0.000       0.000       7.313       7.317       7.321       7.325       7.325       7.321       7.310       7.297    
        7.313       7.328       7.337       7.342       7.347       7.384       7.418       7.448       7.482       7.499    
  10    0.000       0.000       7.327       7.330       7.333       7.335       7.335       7.331       7.324       7.320    
        7.328       7.339       7.349       7.358       7.371       7.399       7.429       7.458       7.484       7.499    

 HEAD WILL BE SAVED ON UNIT   51 AT END OF TIME STEP    3, STRESS PERIOD    2

 DRAWDOWN WILL BE SAVED ON UNIT   52 AT END OF TIME STEP    3, STRESS PERIOD    2
1
  VOLUMETRIC BUDGET FOR ENTIRE MODEL AT END OF TIME STEP    3, STRESS PERIOD   2
  ------------------------------------------------------------------------------

     CUMULATIVE VOLUMES      L**3       RATES FOR THIS TIME STEP      L**3/T
     ------------------                 ------------------------

           IN:                                      IN:
           ---                                      ---
             STORAGE =         249.6362               STORAGE =          80.1812
       CONSTANT HEAD =           0.0000         CONSTANT HEAD =           0.0000
               WELLS =           0.0000                 WELLS =           0.0000
       RIVER LEAKAGE =      256313.9375         RIVER LEAKAGE =       64117.6914
            RECHARGE =        2229.6208              RECHARGE =         599.7326

            TOTAL IN =      258793.2031              TOTAL IN =       64797.6055

          OUT:                                     OUT:
          ----                                     ----
             STORAGE =      257603.2188               STORAGE =       64544.0586
       CONSTANT HEAD =           0.0000         CONSTANT HEAD =           0.0000
               WELLS =         925.4607                 WELLS =         254.5907
       RIVER LEAKAGE =         268.8873         RIVER LEAKAGE =           0.0000
            RECHARGE =           0.0000              RECHARGE =           0.0000

           TOTAL OUT =      258797.5625             TOTAL OUT =       64798.6484

            IN - OUT =          -4.3594              IN - OUT =          -1.0430

 PERCENT DISCREPANCY =          -0.00     PERCENT DISCREPANCY =          -0.00






         TIME SUMMARY AT END OF TIME STEP    3 IN STRESS PERIOD    2
                    SECONDS     MINUTES      HOURS       DAYS        YEARS
                    -----------------------------------------------------------
   TIME STEP LENGTH  86400.      1440.0      24.000      1.0000     2.73785E-03
 STRESS PERIOD TIME 2.59200E+05  4320.0      72.000      3.0000     8.21355E-03
         TOTAL TIME 3.45600E+05  5760.0      96.000      4.0000     1.09514E-02
1

 SOLVING FOR HEAD 

    ------------------------------------------------
       NWT REQUIRED            4 OUTER ITERATIONS 
       AND A TOTAL OF          5 INNER ITERATIONS.
    ------------------------------------------------

 OUTPUT CONTROL FOR STRESS PERIOD    2   TIME STEP    4
    SAVE HEAD FOR ALL LAYERS
    SAVE DRAWDOWN FOR ALL LAYERS
    SAVE BUDGET
    PRINT HEAD FOR ALL LAYERS
    PRINT BUDGET
1
              HEAD IN LAYER   1 AT END OF TIME STEP   4 IN STRESS PERIOD    2
  ---------------------------------------------------------------------------

            1           2           3           4           5           6           7           8           9          10
           11          12          13          14          15          16          17          18          19          20
 ........................................................................................................................
   1    0.000       0.000       0.000       0.000       0.000       7.200       7.190       7.212       7.230       7.240    
        7.242       7.236       7.231       7.649       7.238       7.257       7.286       7.304       0.000       0.000    
   2    0.000       0.000       0.000       0.000       7.212       7.196       7.149       7.203       7.224       7.234    
        7.236       7.232       7.228       7.650       7.235       7.247       7.284       7.306       0.000       0.000    
   3    0.000       0.000       0.000       0.000       7.213       7.212       7.205       7.215       7.224       7.230    
        7.231       7.226       7.223       7.631       7.231       7.207       7.283       7.314       0.000       0.000    
   4    0.000       0.000       0.000       7.216       7.224       7.605       7.611       7.622       7.644       7.628    
        7.604       7.462       7.228       7.670       7.251       7.268       7.309       7.334       0.000       0.000    
   5    0.000       0.000       7.259       7.334       7.647       7.489       7.238       7.242       7.244       7.241    
        7.239       7.555       7.690       7.468       7.269       7.303       7.338       7.365       7.389       0.000    
   6    0.000       7.633       7.704       7.595       7.305       7.247       7.257       7.263       7.262       7.257    
        7.258       7.259       7.265       7.271       7.295       7.330       7.363       7.385       7.395       0.000    
   7    0.000       7.251       7.258       7.261       7.265       7.277       7.286       7.286       7.278       7.264    
        7.277       7.286       7.293       7.299       7.309       7.348       7.381       7.402       0.000       0.000    
   8    0.000       7.269       7.284       7.292       7.298       7.305       7.308       7.304       7.287       7.234    
        7.288       7.308       7.317       7.315       7.283       7.358       7.398       7.423       0.000       0.000    
   9    0.000       0.000       7.313       7.317       7.321       7.325       7.325       7.321       7.310       7.297    
        7.313       7.328       7.337       7.342       7.347       7.384       7.418       7.448       7.482       7.499    
  10    0.000       0.000       7.327       7.330       7.333       7.335       7.335       7.331       7.324       7.320    
        7.328       7.339       7.349       7.358       7.371       7.399       7.429       7.458       7.484       7.499    

 HEAD WILL BE SAVED ON UNIT   51 AT END OF TIME STEP    4, STRESS PERIOD    2

 DRAWDOWN WILL BE SAVED ON UNIT   52 AT END OF TIME STEP    4, STRESS PERIOD    2
1
  VOLUMETRIC BUDGET FOR ENTIRE MODEL AT END OF TIME STEP    4, STRESS PERIOD   2
  ------------------------------------------------------------------------------

     CUMULATIVE VOLUMES      L**3       RATES FOR THIS TIME STEP      L**3/T
     ------------------                 ------------------------

           IN:                                      IN:
           ---                                      ---
             STORAGE =         326.5615               STORAGE =          76.9252
       CONSTANT HEAD =           0.0000         CONSTANT HEAD =           0.0000
               WELLS =           0.0000                 WELLS =           0.0000
       RIVER LEAKAGE =      306298.9062         RIVER LEAKAGE =       49984.9570
            RECHARGE =        2829.3535              RECHARGE =         599.7326

            TOTAL IN =      309454.8125              TOTAL IN =       50661.6172

          OUT:                                     OUT:
          ----                                     ----
             STORAGE =      308011.0625               STORAGE =       50407.8320
       CONSTANT HEAD =           0.0000         CONSTANT HEAD =           0.0000
               WELLS =        1180.0514                 WELLS =         254.5907
       RIVER LEAKAGE =         268.8873         RIVER LEAKAGE =           0.0000
            RECHARGE =           0.0000              RECHARGE =           0.0000

           TOTAL OUT =      309460.0000             TOTAL OUT =       50662.4219

            IN - OUT =          -5.1875              IN - OUT =          -0.8047

 PERCENT DISCREPANCY =          -0.00     PERCENT DISCREPANCY =          -0.00






         TIME SUMMARY AT END OF TIME STEP    4 IN STRESS PERIOD    2
                    SECONDS     MINUTES      HOURS       DAYS        YEARS
                    -----------------------------------------------------------
   TIME STEP LENGTH  86400.      1440.0      24.000      1.0000     2.73785E-03
 STRESS PERIOD TIME 3.45600E+05  5760.0      96.000      4.0000     1.09514E-02
         TOTAL TIME 4.32000E+05  7200.0      120.00      5.0000     1.36893E-02
1

 SOLVING FOR HEAD 

    ------------------------------------------------
       NWT REQUIRED            4 OUTER ITERATIONS 
       AND A TOTAL OF          5 INNER ITERATIONS.
    ------------------------------------------------

 OUTPUT CONTROL FOR STRESS PERIOD    2   TIME STEP    5
    SAVE HEAD FOR ALL LAYERS
    SAVE DRAWDOWN FOR ALL LAYERS
    SAVE BUDGET
    PRINT HEAD FOR ALL LAYERS
    PRINT BUDGET
1
              HEAD IN LAYER   1 AT END OF TIME STEP   5 IN STRESS PERIOD    2
  ---------------------------------------------------------------------------

            1           2           3           4           5           6           7           8           9          10
           11          12          13          14          15          16          17          18          19          20
 ........................................................................................................................
   1    0.000       0.000       0.000       0.000       0.000       7.200       7.190       7.212       7.230       7.240    
        7.242       7.236       7.235       7.695       7.242       7.257       7.286       7.304       0.000       0.000    
   2    0.000       0.000       0.000       0.000       7.212       7.196       7.149       7.203       7.225       7.234    
        7.236       7.232       7.232       7.697       7.239       7.247       7.284       7.306       0.000       0.000    
   3    0.000       0.000       0.000       0.000       7.213       7.215       7.210       7.219       7.227       7.232    
        7.233       7.228       7.225       7.680       7.233       7.206       7.283       7.314       0.000       0.000    
   4    0.000       0.000       0.000       7.217       7.229       7.655       7.659       7.671       7.692       7.677    
        7.653       7.508       7.234       7.716       7.253       7.268       7.309       7.334       0.000       0.000    
   5    0.000       0.000       7.273       7.362       7.694       7.537       7.244       7.245       7.246       7.244    
        7.244       7.605       7.733       7.514       7.271       7.303       7.338       7.365       7.389       0.000    
   6    0.000       7.683       7.746       7.645       7.326       7.249       7.258       7.263       7.262       7.258    
        7.258       7.262       7.268       7.272       7.295       7.330       7.363       7.385       7.395       0.000    
   7    0.000       7.254       7.261       7.264       7.266       7.277       7.286       7.286       7.278       7.264    
        7.277       7.286       7.293       7.299       7.309       7.348       7.381       7.402       0.000       0.000    
   8    0.000       7.269       7.284       7.292       7.298       7.305       7.308       7.304       7.287       7.234    
        7.288       7.308       7.317       7.315       7.282       7.358       7.398       7.423       0.000       0.000    
   9    0.000       0.000       7.313       7.317       7.321       7.325       7.326       7.321       7.310       7.297    
        7.313       7.328       7.337       7.342       7.347       7.384       7.418       7.448       7.482       7.499    
  10    0.000       0.000       7.327       7.330       7.333       7.335       7.335       7.331       7.324       7.320    
        7.328       7.339       7.349       7.358       7.371       7.399       7.429       7.458       7.484       7.499    

 HEAD WILL BE SAVED ON UNIT   51 AT END OF TIME STEP    5, STRESS PERIOD    2

 DRAWDOWN WILL BE SAVED ON UNIT   52 AT END OF TIME STEP    5, STRESS PERIOD    2
1
  VOLUMETRIC BUDGET FOR ENTIRE MODEL AT END OF TIME STEP    5, STRESS PERIOD   2
  ------------------------------------------------------------------------------

     CUMULATIVE VOLUMES      L**3       RATES FOR THIS TIME STEP      L**3/T
     ------------------                 ------------------------

           IN:                                      IN:
           ---                                      ---
             STORAGE =         400.1445               STORAGE =          73.5831
       CONSTANT HEAD =           0.0000         CONSTANT HEAD =           0.0000
               WELLS =           0.0000                 WELLS =           0.0000
       RIVER LEAKAGE =      345760.0000         RIVER LEAKAGE =       39461.1094
            RECHARGE =        3429.0862              RECHARGE =         599.7326

            TOTAL IN =      349589.2500              TOTAL IN =       40134.4258

          OUT:                                     OUT:
          ----                                     ----
             STORAGE =      347891.5312               STORAGE =       39880.4648
       CONSTANT HEAD =           0.0000         CONSTANT HEAD =           0.0000
               WELLS =        1434.6421                 WELLS =         254.5907
       RIVER LEAKAGE =         268.8873         RIVER LEAKAGE =           0.0000
            RECHARGE =           0.0000              RECHARGE =           0.0000

           TOTAL OUT =      349595.0625             TOTAL OUT =       40135.0547

            IN - OUT =          -5.8125              IN - OUT =          -0.6289

 PERCENT DISCREPANCY =          -0.00     PERCENT DISCREPANCY =          -0.00






         TIME SUMMARY AT END OF TIME STEP    5 IN STRESS PERIOD    2
                    SECONDS     MINUTES      HOURS       DAYS        YEARS
                    -----------------------------------------------------------
   TIME STEP LENGTH  86400.      1440.0      24.000      1.0000     2.73785E-03
 STRESS PERIOD TIME 4.32000E+05  7200.0      120.00      5.0000     1.36893E-02
         TOTAL TIME 5.18400E+05  8640.0      144.00      6.0000     1.64271E-02
1

 SOLVING FOR HEAD 

    ------------------------------------------------
       NWT REQUIRED            4 OUTER ITERATIONS 
       AND A TOTAL OF          5 INNER ITERATIONS.
    ------------------------------------------------

 OUTPUT CONTROL FOR STRESS PERIOD    2   TIME STEP    6
    SAVE HEAD FOR ALL LAYERS
    SAVE DRAWDOWN FOR ALL LAYERS
    SAVE BUDGET
    PRINT HEAD FOR ALL LAYERS
    PRINT BUDGET
1
              HEAD IN LAYER   1 AT END OF TIME STEP   6 IN STRESS PERIOD    2
  ---------------------------------------------------------------------------

            1           2           3           4           5           6           7           8           9          10
           11          12          13          14          15          16          17          18          19          20
 ........................................................................................................................
   1    0.000       0.000       0.000       0.000       0.000       7.200       7.190       7.212       7.230       7.240    
        7.242       7.236       7.240       7.729       7.247       7.258       7.286       7.304       0.000       0.000    
   2    0.000       0.000       0.000       0.000       7.212       7.196       7.149       7.203       7.225       7.234    
        7.236       7.232       7.235       7.731       7.242       7.247       7.284       7.306       0.000       0.000    
   3    0.000       0.000       0.000       0.000       7.214       7.218       7.214       7.223       7.230       7.235    
        7.236       7.230       7.228       7.717       7.236       7.206       7.283       7.314       0.000       0.000    
   4    0.000       0.000       0.000       7.218       7.235       7.693       7.696       7.707       7.728       7.714    
        7.692       7.547       7.241       7.748       7.256       7.268       7.309       7.334       0.000       0.000    
   5    0.000       0.000       7.287       7.389       7.728       7.578       7.249       7.248       7.249       7.247    
        7.248       7.646       7.762       7.554       7.272       7.303       7.338       7.365       7.389       0.000    
   6    0.000       7.721       7.773       7.684       7.347       7.252       7.258       7.263       7.262       7.258    
        7.258       7.264       7.271       7.274       7.296       7.330       7.363       7.385       7.395       0.000    
   7    0.000       7.257       7.264       7.266       7.266       7.277       7.286       7.286       7.278       7.264    
        7.277       7.286       7.293       7.299       7.309       7.348       7.381       7.402       0.000       0.000    
   8    0.000       7.269       7.284       7.292       7.298       7.305       7.308       7.304       7.287       7.233    
        7.288       7.308       7.317       7.315       7.281       7.358       7.398       7.423       0.000       0.000    
   9    0.000       0.000       7.313       7.317       7.321       7.325       7.326       7.321       7.310       7.297    
        7.313       7.328       7.337       7.342       7.347       7.384       7.418       7.448       7.482       7.499    
  10    0.000       0.000       7.327       7.330       7.333       7.335       7.335       7.331       7.324       7.320    
        7.328       7.339       7.349       7.358       7.371       7.399       7.429       7.458       7.484       7.499    

 HEAD WILL BE SAVED ON UNIT   51 AT END OF TIME STEP    6, STRESS PERIOD    2

 DRAWDOWN WILL BE SAVED ON UNIT   52 AT END OF TIME STEP    6, STRESS PERIOD    2
1
  VOLUMETRIC BUDGET FOR ENTIRE MODEL AT END OF TIME STEP    6, STRESS PERIOD   2
  ------------------------------------------------------------------------------

     CUMULATIVE VOLUMES      L**3       RATES FOR THIS TIME STEP      L**3/T
     ------------------                 ------------------------

           IN:                                      IN:
           ---                                      ---
             STORAGE =         470.3470               STORAGE =          70.2024
       CONSTANT HEAD =           0.0000         CONSTANT HEAD =           0.0000
               WELLS =           0.0000                 WELLS =           0.0000
       RIVER LEAKAGE =      377346.7500         RIVER LEAKAGE =       31586.7520
            RECHARGE =        4028.8188              RECHARGE =         599.7326

            TOTAL IN =      381845.9062              TOTAL IN =       32256.6875

          OUT:                                     OUT:
          ----                                     ----
             STORAGE =      379894.1250               STORAGE =       32002.5938
       CONSTANT HEAD =           0.0000         CONSTANT HEAD =           0.0000
               WELLS =        1689.2328                 WELLS =         254.5907
       RIVER LEAKAGE =         268.8873         RIVER LEAKAGE =           0.0000
            RECHARGE =           0.0000              RECHARGE =           0.0000

           TOTAL OUT =      381852.2188             TOTAL OUT =       32257.1836

            IN - OUT =          -6.3125              IN - OUT =          -0.4961

 PERCENT DISCREPANCY =          -0.00     PERCENT DISCREPANCY =          -0.00






         TIME SUMMARY AT END OF TIME STEP    6 IN STRESS PERIOD    2
                    SECONDS     MINUTES      HOURS       DAYS        YEARS
                    -----------------------------------------------------------
   TIME STEP LENGTH  86400.      1440.0      24.000      1.0000     2.73785E-03
 STRESS PERIOD TIME 5.18400E+05  8640.0      144.00      6.0000     1.64271E-02
         TOTAL TIME 6.04800E+05  10080.      168.00      7.0000     1.91650E-02
1

 SOLVING FOR HEAD 

    ------------------------------------------------
       NWT REQUIRED            4 OUTER ITERATIONS 
       AND A TOTAL OF          5 INNER ITERATIONS.
    ------------------------------------------------

 OUTPUT CONTROL FOR STRESS PERIOD    2   TIME STEP    7
    SAVE HEAD FOR ALL LAYERS
    SAVE DRAWDOWN FOR ALL LAYERS
    SAVE BUDGET
    PRINT HEAD FOR ALL LAYERS
    PRINT BUDGET
1
              HEAD IN LAYER   1 AT END OF TIME STEP   7 IN STRESS PERIOD    2
  ---------------------------------------------------------------------------

            1           2           3           4           5           6           7           8           9          10
           11          12          13          14          15          16          17          18          19          20
 ........................................................................................................................
   1    0.000       0.000       0.000       0.000       0.000       7.200       7.190       7.212       7.230       7.240    
        7.242       7.236       7.244       7.753       7.252       7.258       7.286       7.304       0.000       0.000    
   2    0.000       0.000       0.000       0.000       7.212       7.197       7.148       7.203       7.225       7.234    
        7.237       7.232       7.239       7.756       7.246       7.247       7.284       7.306       0.000       0.000    
   3    0.000       0.000       0.000       0.000       7.214       7.222       7.219       7.227       7.233       7.238    
        7.239       7.232       7.231       7.745       7.238       7.205       7.283       7.314       0.000       0.000    
   4    0.000       0.000       0.000       7.219       7.240       7.722       7.724       7.735       7.753       7.741    
        7.721       7.582       7.249       7.771       7.258       7.268       7.309       7.334       0.000       0.000    
   5    0.000       0.000       7.300       7.415       7.754       7.613       7.255       7.252       7.253       7.250    
        7.253       7.679       7.783       7.588       7.274       7.303       7.338       7.365       7.389       0.000    
   6    0.000       7.749       7.792       7.714       7.367       7.255       7.258       7.263       7.262       7.258    
        7.258       7.267       7.274       7.276       7.296       7.330       7.363       7.385       7.395       0.000    
   7    0.000       7.260       7.267       7.269       7.267       7.278       7.286       7.286       7.278       7.264    
        7.277       7.286       7.293       7.299       7.309       7.348       7.381       7.402       0.000       0.000    
   8    0.000       7.269       7.284       7.292       7.299       7.305       7.309       7.304       7.287       7.233    
        7.288       7.308       7.317       7.315       7.281       7.358       7.398       7.423       0.000       0.000    
   9    0.000       0.000       7.313       7.317       7.321       7.325       7.326       7.321       7.310       7.297    
        7.313       7.328       7.337       7.342       7.347       7.384       7.418       7.448       7.482       7.499    
  10    0.000       0.000       7.327       7.330       7.333       7.335       7.335       7.331       7.324       7.320    
        7.328       7.339       7.349       7.358       7.371       7.399       7.429       7.458       7.485       7.499    

 HEAD WILL BE SAVED ON UNIT   51 AT END OF TIME STEP    7, STRESS PERIOD    2

 DRAWDOWN WILL BE SAVED ON UNIT   52 AT END OF TIME STEP    7, STRESS PERIOD    2
1
  VOLUMETRIC BUDGET FOR ENTIRE MODEL AT END OF TIME STEP    7, STRESS PERIOD   2
  ------------------------------------------------------------------------------

     CUMULATIVE VOLUMES      L**3       RATES FOR THIS TIME STEP      L**3/T
     ------------------                 ------------------------

           IN:                                      IN:
           ---                                      ---
             STORAGE =         537.1636               STORAGE =          66.8167
       CONSTANT HEAD =           0.0000         CONSTANT HEAD =           0.0000
               WELLS =           0.0000                 WELLS =           0.0000
       RIVER LEAKAGE =      403011.1875         RIVER LEAKAGE =       25664.4531
            RECHARGE =        4628.5513              RECHARGE =         599.7326

            TOTAL IN =      408176.9062              TOTAL IN =       26331.0020

          OUT:                                     OUT:
          ----                                     ----
             STORAGE =      405970.9375               STORAGE =       26076.8105
       CONSTANT HEAD =           0.0000         CONSTANT HEAD =           0.0000
               WELLS =        1943.8235                 WELLS =         254.5907
       RIVER LEAKAGE =         268.8873         RIVER LEAKAGE =           0.0000
            RECHARGE =           0.0000              RECHARGE =           0.0000

           TOTAL OUT =      408183.6250             TOTAL OUT =       26331.4004

            IN - OUT =          -6.7188              IN - OUT =          -0.3984

 PERCENT DISCREPANCY =          -0.00     PERCENT DISCREPANCY =          -0.00






         TIME SUMMARY AT END OF TIME STEP    7 IN STRESS PERIOD    2
                    SECONDS     MINUTES      HOURS       DAYS        YEARS
                    -----------------------------------------------------------
   TIME STEP LENGTH  86400.      1440.0      24.000      1.0000     2.73785E-03
 STRESS PERIOD TIME 6.04800E+05  10080.      168.00      7.0000     1.91650E-02
         TOTAL TIME 6.91200E+05  11520.      192.00      8.0000     2.19028E-02
1

 SOLVING FOR HEAD 

    ------------------------------------------------
       NWT REQUIRED            4 OUTER ITERATIONS 
       AND A TOTAL OF          4 INNER ITERATIONS.
    ------------------------------------------------

 OUTPUT CONTROL FOR STRESS PERIOD    2   TIME STEP    8
    SAVE HEAD FOR ALL LAYERS
    SAVE DRAWDOWN FOR ALL LAYERS
    SAVE BUDGET
    PRINT HEAD FOR ALL LAYERS
    PRINT BUDGET
1
              HEAD IN LAYER   1 AT END OF TIME STEP   8 IN STRESS PERIOD    2
  ---------------------------------------------------------------------------

            1           2           3           4           5           6           7           8           9          10
           11          12          13          14          15          16          17          18          19          20
 ........................................................................................................................
   1    0.000       0.000       0.000       0.000       0.000       7.200       7.190       7.212       7.230       7.240    
        7.242       7.236       7.249       7.771       7.256       7.258       7.286       7.304       0.000       0.000    
   2    0.000       0.000       0.000       0.000       7.212       7.197       7.148       7.203       7.225       7.235    
        7.237       7.232       7.243       7.774       7.250       7.247       7.284       7.306       0.000       0.000    
   3    0.000       0.000       0.000       0.000       7.214       7.225       7.224       7.231       7.236       7.241    
        7.242       7.234       7.234       7.766       7.241       7.205       7.283       7.314       0.000       0.000    
   4    0.000       0.000       0.000       7.221       7.246       7.744       7.745       7.755       7.773       7.762    
        7.744       7.612       7.256       7.788       7.261       7.269       7.309       7.334       0.000       0.000    
   5    0.000       0.000       7.314       7.439       7.772       7.642       7.261       7.256       7.256       7.253    
        7.258       7.705       7.797       7.618       7.276       7.303       7.338       7.365       7.389       0.000    
   6    0.000       7.771       7.805       7.738       7.386       7.258       7.258       7.264       7.262       7.258    
        7.258       7.269       7.277       7.279       7.296       7.330       7.363       7.385       7.395       0.000    
   7    0.000       7.263       7.271       7.272       7.268       7.278       7.286       7.286       7.278       7.264    
        7.277       7.287       7.293       7.299       7.309       7.348       7.381       7.402       0.000       0.000    
   8    0.000       7.269       7.285       7.292       7.299       7.305       7.309       7.304       7.287       7.232    
        7.288       7.308       7.317       7.315       7.280       7.358       7.398       7.423       0.000       0.000    
   9    0.000       0.000       7.313       7.317       7.321       7.325       7.326       7.321       7.311       7.297    
        7.313       7.328       7.337       7.343       7.347       7.384       7.418       7.449       7.482       7.499    
  10    0.000       0.000       7.327       7.330       7.333       7.335       7.335       7.331       7.324       7.320    
        7.328       7.339       7.349       7.358       7.371       7.399       7.429       7.458       7.485       7.499    

 HEAD WILL BE SAVED ON UNIT   51 AT END OF TIME STEP    8, STRESS PERIOD    2

 DRAWDOWN WILL BE SAVED ON UNIT   52 AT END OF TIME STEP    8, STRESS PERIOD    2
1
  VOLUMETRIC BUDGET FOR ENTIRE MODEL AT END OF TIME STEP    8, STRESS PERIOD   2
  ------------------------------------------------------------------------------

     CUMULATIVE VOLUMES      L**3       RATES FOR THIS TIME STEP      L**3/T
     ------------------                 ------------------------

           IN:                                      IN:
           ---                                      ---
             STORAGE =         600.6136               STORAGE =          63.4500
       CONSTANT HEAD =           0.0000         CONSTANT HEAD =           0.0000
               WELLS =           0.0000                 WELLS =           0.0000
       RIVER LEAKAGE =      424196.8125         RIVER LEAKAGE =       21185.6289
            RECHARGE =        5228.2837              RECHARGE =         599.7326

            TOTAL IN =      430025.7188              TOTAL IN =       21848.8105

          OUT:                                     OUT:
          ----                                     ----
             STORAGE =      427565.4688               STORAGE =       21594.5449
       CONSTANT HEAD =           0.0000         CONSTANT HEAD =           0.0000
               WELLS =        2198.4141                 WELLS =         254.5907
       RIVER LEAKAGE =         268.8873         RIVER LEAKAGE =           0.0000
            RECHARGE =           0.0000              RECHARGE =           0.0000

           TOTAL OUT =      430032.7500             TOTAL OUT =       21849.1348

            IN - OUT =          -7.0312              IN - OUT =          -0.3242

 PERCENT DISCREPANCY =          -0.00     PERCENT DISCREPANCY =          -0.00






         TIME SUMMARY AT END OF TIME STEP    8 IN STRESS PERIOD    2
                    SECONDS     MINUTES      HOURS       DAYS        YEARS
                    -----------------------------------------------------------
   TIME STEP LENGTH  86400.      1440.0      24.000      1.0000     2.73785E-03
 STRESS PERIOD TIME 6.91200E+05  11520.      192.00      8.0000     2.19028E-02
         TOTAL TIME 7.77600E+05  12960.      216.00      9.0000     2.46407E-02
1

 SOLVING FOR HEAD 

    ------------------------------------------------
       NWT REQUIRED            4 OUTER ITERATIONS 
       AND A TOTAL OF          4 INNER ITERATIONS.
    ------------------------------------------------

 OUTPUT CONTROL FOR STRESS PERIOD    2   TIME STEP    9
    SAVE HEAD FOR ALL LAYERS
    SAVE DRAWDOWN FOR ALL LAYERS
    SAVE BUDGET
    PRINT HEAD FOR ALL LAYERS
    PRINT BUDGET
1
              HEAD IN LAYER   1 AT END OF TIME STEP   9 IN STRESS PERIOD    2
  ---------------------------------------------------------------------------

            1           2           3           4           5           6           7           8           9          10
           11          12          13          14          15          16          17          18          19          20
 ........................................................................................................................
   1    0.000       0.000       0.000       0.000       0.000       7.200       7.190       7.212       7.230       7.240    
        7.242       7.236       7.254       7.784       7.261       7.258       7.286       7.304       0.000       0.000    
   2    0.000       0.000       0.000       0.000       7.212       7.197       7.148       7.204       7.225       7.235    
        7.237       7.233       7.247       7.787       7.254       7.247       7.284       7.306       0.000       0.000    
   3    0.000       0.000       0.000       0.000       7.215       7.229       7.229       7.235       7.239       7.244    
        7.245       7.237       7.237       7.781       7.244       7.205       7.283       7.314       0.000       0.000    
   4    0.000       0.000       0.000       7.222       7.252       7.761       7.761       7.771       7.787       7.777    
        7.762       7.638       7.264       7.800       7.264       7.269       7.309       7.334       0.000       0.000    
   5    0.000       0.000       7.327       7.461       7.786       7.667       7.267       7.259       7.259       7.256    
        7.264       7.727       7.807       7.644       7.278       7.303       7.338       7.365       7.389       0.000    
   6    0.000       7.786       7.814       7.756       7.405       7.261       7.259       7.264       7.263       7.258    
        7.259       7.272       7.280       7.281       7.296       7.330       7.363       7.385       7.395       0.000    
   7    0.000       7.266       7.274       7.275       7.270       7.278       7.286       7.286       7.278       7.264    
        7.277       7.287       7.293       7.299       7.309       7.348       7.381       7.402       0.000       0.000    
   8    0.000       7.269       7.285       7.292       7.299       7.306       7.309       7.304       7.287       7.232    
        7.288       7.308       7.317       7.315       7.280       7.358       7.398       7.423       0.000       0.000    
   9    0.000       0.000       7.313       7.317       7.321       7.325       7.326       7.321       7.311       7.297    
        7.313       7.328       7.337       7.343       7.347       7.384       7.418       7.449       7.482       7.499    
  10    0.000       0.000       7.327       7.330       7.333       7.335       7.335       7.331       7.324       7.320    
        7.328       7.339       7.349       7.358       7.371       7.399       7.429       7.458       7.485       7.499    

 HEAD WILL BE SAVED ON UNIT   51 AT END OF TIME STEP    9, STRESS PERIOD    2

 DRAWDOWN WILL BE SAVED ON UNIT   52 AT END OF TIME STEP    9, STRESS PERIOD    2
1
  VOLUMETRIC BUDGET FOR ENTIRE MODEL AT END OF TIME STEP    9, STRESS PERIOD   2
  ------------------------------------------------------------------------------

     CUMULATIVE VOLUMES      L**3       RATES FOR THIS TIME STEP      L**3/T
     ------------------                 ------------------------

           IN:                                      IN:
           ---                                      ---
             STORAGE =         660.7358               STORAGE =          60.1222
       CONSTANT HEAD =           0.0000         CONSTANT HEAD =           0.0000
               WELLS =           0.0000                 WELLS =           0.0000
       RIVER LEAKAGE =      441975.0938         RIVER LEAKAGE =       17778.2871
            RECHARGE =        5828.0161              RECHARGE =         599.7326

            TOTAL IN =      448463.8750              TOTAL IN =       18438.1426

          OUT:                                     OUT:
          ----                                     ----
             STORAGE =      445749.2812               STORAGE =       18183.8203
       CONSTANT HEAD =           0.0000         CONSTANT HEAD =           0.0000
               WELLS =        2453.0046                 WELLS =         254.5907
       RIVER LEAKAGE =         268.8873         RIVER LEAKAGE =           0.0000
            RECHARGE =           0.0000              RECHARGE =           0.0000

           TOTAL OUT =      448471.1562             TOTAL OUT =       18438.4102

            IN - OUT =          -7.2812              IN - OUT =          -0.2676

 PERCENT DISCREPANCY =          -0.00     PERCENT DISCREPANCY =          -0.00






         TIME SUMMARY AT END OF TIME STEP    9 IN STRESS PERIOD    2
                    SECONDS     MINUTES      HOURS       DAYS        YEARS
                    -----------------------------------------------------------
   TIME STEP LENGTH  86400.      1440.0      24.000      1.0000     2.73785E-03
 STRESS PERIOD TIME 7.77600E+05  12960.      216.00      9.0000     2.46407E-02
         TOTAL TIME 8.64000E+05  14400.      240.00      10.000     2.73785E-02
1

 SOLVING FOR HEAD 

    ------------------------------------------------
       NWT REQUIRED            4 OUTER ITERATIONS 
       AND A TOTAL OF          4 INNER ITERATIONS.
    ------------------------------------------------

 OUTPUT CONTROL FOR STRESS PERIOD    2   TIME STEP   10
    SAVE HEAD FOR ALL LAYERS
    SAVE DRAWDOWN FOR ALL LAYERS
    SAVE BUDGET
    PRINT HEAD FOR ALL LAYERS
    PRINT BUDGET
1
              HEAD IN LAYER   1 AT END OF TIME STEP  10 IN STRESS PERIOD    2
  ---------------------------------------------------------------------------

            1           2           3           4           5           6           7           8           9          10
           11          12          13          14          15          16          17          18          19          20
 ........................................................................................................................
   1    0.000       0.000       0.000       0.000       0.000       7.200       7.190       7.212       7.230       7.240    
        7.242       7.236       7.259       7.793       7.266       7.258       7.286       7.304       0.000       0.000    
   2    0.000       0.000       0.000       0.000       7.212       7.197       7.148       7.204       7.225       7.235    
        7.237       7.233       7.251       7.797       7.258       7.247       7.284       7.306       0.000       0.000    
   3    0.000       0.000       0.000       0.000       7.215       7.233       7.234       7.240       7.243       7.248    
        7.248       7.239       7.240       7.793       7.246       7.204       7.283       7.314       0.000       0.000    
   4    0.000       0.000       0.000       7.224       7.258       7.774       7.773       7.783       7.797       7.789    
        7.775       7.660       7.271       7.808       7.266       7.269       7.309       7.334       0.000       0.000    
   5    0.000       0.000       7.340       7.482       7.796       7.689       7.274       7.263       7.262       7.260    
        7.269       7.744       7.813       7.666       7.280       7.303       7.338       7.365       7.389       0.000    
   6    0.000       7.798       7.819       7.771       7.422       7.265       7.259       7.264       7.263       7.258    
        7.259       7.275       7.284       7.284       7.296       7.330       7.363       7.385       7.395       0.000    
   7    0.000       7.270       7.277       7.278       7.271       7.278       7.286       7.286       7.278       7.264    
        7.277       7.287       7.293       7.299       7.309       7.348       7.381       7.402       0.000       0.000    
   8    0.000       7.270       7.285       7.292       7.299       7.306       7.309       7.304       7.287       7.231    
        7.288       7.308       7.317       7.315       7.280       7.358       7.398       7.423       0.000       0.000    
   9    0.000       0.000       7.313       7.317       7.321       7.325       7.326       7.321       7.311       7.297    
        7.313       7.328       7.337       7.343       7.347       7.384       7.418       7.449       7.482       7.499    
  10    0.000       0.000       7.327       7.330       7.333       7.335       7.335       7.331       7.324       7.320    
        7.328       7.339       7.349       7.358       7.371       7.399       7.429       7.458       7.485       7.499    

 HEAD WILL BE SAVED ON UNIT   51 AT END OF TIME STEP   10, STRESS PERIOD    2

 DRAWDOWN WILL BE SAVED ON UNIT   52 AT END OF TIME STEP   10, STRESS PERIOD    2
1
  VOLUMETRIC BUDGET FOR ENTIRE MODEL AT END OF TIME STEP   10, STRESS PERIOD   2
  ------------------------------------------------------------------------------

     CUMULATIVE VOLUMES      L**3       RATES FOR THIS TIME STEP      L**3/T
     ------------------                 ------------------------

           IN:                                      IN:
           ---                                      ---
             STORAGE =         717.6392               STORAGE =          56.9034
       CONSTANT HEAD =           0.0000         CONSTANT HEAD =           0.0000
               WELLS =           0.0000                 WELLS =           0.0000
       RIVER LEAKAGE =      457144.5312         RIVER LEAKAGE =       15169.4395
            RECHARGE =        6427.7485              RECHARGE =         599.7326

            TOTAL IN =      464289.9062              TOTAL IN =       15826.0752

          OUT:                                     OUT:
          ----                                     ----
             STORAGE =      461321.0000               STORAGE =       15571.7109
       CONSTANT HEAD =           0.0000         CONSTANT HEAD =           0.0000
               WELLS =        2707.5952                 WELLS =         254.5907
       RIVER LEAKAGE =         268.8873         RIVER LEAKAGE =           0.0000
            RECHARGE =           0.0000              RECHARGE =           0.0000

           TOTAL OUT =      464297.4688             TOTAL OUT =       15826.3018

            IN - OUT =          -7.5625              IN - OUT =          -0.2266

 PERCENT DISCREPANCY =          -0.00     PERCENT DISCREPANCY =          -0.00






         TIME SUMMARY AT END OF TIME STEP   10 IN STRESS PERIOD    2
                    SECONDS     MINUTES      HOURS       DAYS        YEARS
                    -----------------------------------------------------------
   TIME STEP LENGTH  86400.      1440.0      24.000      1.0000     2.73785E-03
 STRESS PERIOD TIME 8.64000E+05  14400.      240.00      10.000     2.73785E-02
         TOTAL TIME 9.50400E+05  15840.      264.00      11.000     3.01164E-02
1

 SOLVING FOR HEAD 

    ------------------------------------------------
       NWT REQUIRED            3 OUTER ITERATIONS 
       AND A TOTAL OF          3 INNER ITERATIONS.
    ------------------------------------------------

 OUTPUT CONTROL FOR STRESS PERIOD    2   TIME STEP   11
    SAVE HEAD FOR ALL LAYERS
    SAVE DRAWDOWN FOR ALL LAYERS
    SAVE BUDGET
    PRINT HEAD FOR ALL LAYERS
    PRINT BUDGET
1
              HEAD IN LAYER   1 AT END OF TIME STEP  11 IN STRESS PERIOD    2
  ---------------------------------------------------------------------------

            1           2           3           4           5           6           7           8           9          10
           11          12          13          14          15          16          17          18          19          20
 ........................................................................................................................
   1    0.000       0.000       0.000       0.000       0.000       7.200       7.190       7.212       7.230       7.240    
        7.242       7.237       7.263       7.800       7.271       7.259       7.286       7.304       0.000       0.000    
   2    0.000       0.000       0.000       0.000       7.212       7.197       7.147       7.204       7.225       7.235    
        7.237       7.233       7.255       7.804       7.262       7.247       7.284       7.306       0.000       0.000    
   3    0.000       0.000       0.000       0.000       7.216       7.236       7.239       7.244       7.246       7.251    
        7.251       7.242       7.243       7.802       7.249       7.204       7.283       7.314       0.000       0.000    
   4    0.000       0.000       0.000       7.226       7.264       7.785       7.782       7.791       7.804       7.798    
        7.786       7.680       7.279       7.814       7.269       7.269       7.309       7.335       0.000       0.000    
   5    0.000       0.000       7.353       7.502       7.804       7.707       7.280       7.267       7.265       7.263    
        7.274       7.758       7.818       7.686       7.282       7.303       7.338       7.365       7.389       0.000    
   6    0.000       7.807       7.823       7.782       7.439       7.268       7.260       7.264       7.263       7.258    
        7.259       7.278       7.287       7.286       7.296       7.330       7.363       7.385       7.395       0.000    
   7    0.000       7.273       7.281       7.281       7.272       7.278       7.286       7.286       7.278       7.264    
        7.277       7.287       7.294       7.299       7.309       7.348       7.381       7.402       0.000       0.000    
   8    0.000       7.270       7.285       7.292       7.299       7.306       7.309       7.304       7.287       7.231    
        7.288       7.308       7.317       7.315       7.279       7.358       7.398       7.423       0.000       0.000    
   9    0.000       0.000       7.313       7.317       7.321       7.325       7.326       7.321       7.311       7.297    
        7.314       7.328       7.337       7.343       7.347       7.384       7.418       7.449       7.482       7.499    
  10    0.000       0.000       7.327       7.330       7.333       7.335       7.335       7.331       7.325       7.320    
        7.328       7.339       7.349       7.358       7.371       7.399       7.429       7.458       7.485       7.499    

 HEAD WILL BE SAVED ON UNIT   51 AT END OF TIME STEP   11, STRESS PERIOD    2

 DRAWDOWN WILL BE SAVED ON UNIT   52 AT END OF TIME STEP   11, STRESS PERIOD    2
1
  VOLUMETRIC BUDGET FOR ENTIRE MODEL AT END OF TIME STEP   11, STRESS PERIOD   2
  ------------------------------------------------------------------------------

     CUMULATIVE VOLUMES      L**3       RATES FOR THIS TIME STEP      L**3/T
     ------------------                 ------------------------

           IN:                                      IN:
           ---                                      ---
             STORAGE =         771.5066               STORAGE =          53.8675
       CONSTANT HEAD =           0.0000         CONSTANT HEAD =           0.0000
               WELLS =           0.0000                 WELLS =           0.0000
       RIVER LEAKAGE =      470302.1562         RIVER LEAKAGE =       13157.6396
            RECHARGE =        7027.4810              RECHARGE =         599.7326

            TOTAL IN =      478101.1250              TOTAL IN =       13811.2393

          OUT:                                     OUT:
          ----                                     ----
             STORAGE =      474881.5312               STORAGE =       13560.5273
       CONSTANT HEAD =           0.0000         CONSTANT HEAD =           0.0000
               WELLS =        2962.1858                 WELLS =         254.5907
       RIVER LEAKAGE =         268.8873         RIVER LEAKAGE =           0.0000
            RECHARGE =           0.0000              RECHARGE =           0.0000

           TOTAL OUT =      478112.5938             TOTAL OUT =       13815.1182

            IN - OUT =         -11.4688              IN - OUT =          -3.8789

 PERCENT DISCREPANCY =          -0.00     PERCENT DISCREPANCY =          -0.03






         TIME SUMMARY AT END OF TIME STEP   11 IN STRESS PERIOD    2
                    SECONDS     MINUTES      HOURS       DAYS        YEARS
                    -----------------------------------------------------------
   TIME STEP LENGTH  86400.      1440.0      24.000      1.0000     2.73785E-03
 STRESS PERIOD TIME 9.50400E+05  15840.      264.00      11.000     3.01164E-02
         TOTAL TIME 1.03680E+06  17280.      288.00      12.000     3.28542E-02
1

 SOLVING FOR HEAD 

    ------------------------------------------------
       NWT REQUIRED            3 OUTER ITERATIONS 
       AND A TOTAL OF          3 INNER ITERATIONS.
    ------------------------------------------------

 OUTPUT CONTROL FOR STRESS PERIOD    2   TIME STEP   12
    SAVE HEAD FOR ALL LAYERS
    SAVE DRAWDOWN FOR ALL LAYERS
    SAVE BUDGET
    PRINT HEAD FOR ALL LAYERS
    PRINT BUDGET
1
              HEAD IN LAYER   1 AT END OF TIME STEP  12 IN STRESS PERIOD    2
  ---------------------------------------------------------------------------

            1           2           3           4           5           6           7           8           9          10
           11          12          13          14          15          16          17          18          19          20
 ........................................................................................................................
   1    0.000       0.000       0.000       0.000       0.000       7.200       7.190       7.212       7.230       7.240    
        7.242       7.237       7.268       7.805       7.275       7.259       7.286       7.304       0.000       0.000    
   2    0.000       0.000       0.000       0.000       7.212       7.197       7.147       7.204       7.226       7.235    
        7.237       7.234       7.259       7.809       7.266       7.247       7.284       7.306       0.000       0.000    
   3    0.000       0.000       0.000       0.000       7.216       7.240       7.244       7.248       7.249       7.254    
        7.254       7.245       7.246       7.808       7.252       7.204       7.283       7.314       0.000       0.000    
   4    0.000       0.000       0.000       7.228       7.269       7.792       7.789       7.798       7.810       7.805    
        7.794       7.697       7.286       7.819       7.272       7.269       7.309       7.335       0.000       0.000    
   5    0.000       0.000       7.365       7.520       7.809       7.723       7.286       7.271       7.269       7.266    
        7.280       7.770       7.822       7.702       7.285       7.303       7.338       7.365       7.389       0.000    
   6    0.000       7.814       7.826       7.791       7.454       7.272       7.260       7.264       7.263       7.259    
        7.260       7.281       7.290       7.289       7.297       7.330       7.363       7.385       7.395       0.000    
   7    0.000       7.276       7.284       7.285       7.274       7.278       7.286       7.286       7.278       7.264    
        7.278       7.287       7.294       7.299       7.309       7.348       7.381       7.402       0.000       0.000    
   8    0.000       7.270       7.285       7.293       7.299       7.306       7.309       7.304       7.287       7.231    
        7.288       7.308       7.317       7.315       7.279       7.358       7.398       7.423       0.000       0.000    
   9    0.000       0.000       7.313       7.317       7.321       7.325       7.326       7.321       7.311       7.297    
        7.314       7.328       7.337       7.343       7.347       7.384       7.418       7.449       7.482       7.499    
  10    0.000       0.000       7.327       7.330       7.333       7.335       7.335       7.331       7.325       7.320    
        7.328       7.339       7.349       7.358       7.372       7.399       7.429       7.458       7.485       7.499    

 HEAD WILL BE SAVED ON UNIT   51 AT END OF TIME STEP   12, STRESS PERIOD    2

 DRAWDOWN WILL BE SAVED ON UNIT   52 AT END OF TIME STEP   12, STRESS PERIOD    2
1
  VOLUMETRIC BUDGET FOR ENTIRE MODEL AT END OF TIME STEP   12, STRESS PERIOD   2
  ------------------------------------------------------------------------------

     CUMULATIVE VOLUMES      L**3       RATES FOR THIS TIME STEP      L**3/T
     ------------------                 ------------------------

           IN:                                      IN:
           ---                                      ---
             STORAGE =         822.3833               STORAGE =          50.8767
       CONSTANT HEAD =           0.0000         CONSTANT HEAD =           0.0000
               WELLS =           0.0000                 WELLS =           0.0000
       RIVER LEAKAGE =      481897.3125         RIVER LEAKAGE =       11595.1436
            RECHARGE =        7627.2134              RECHARGE =         599.7326

            TOTAL IN =      490346.9062              TOTAL IN =       12245.7529

          OUT:                                     OUT:
          ----                                     ----
             STORAGE =      486876.0625               STORAGE =       11994.5371
       CONSTANT HEAD =           0.0000         CONSTANT HEAD =           0.0000
               WELLS =        3216.7764                 WELLS =         254.5907
       RIVER LEAKAGE =         268.8873         RIVER LEAKAGE =           0.0000
            RECHARGE =           0.0000              RECHARGE =           0.0000

           TOTAL OUT =      490361.7188             TOTAL OUT =       12249.1279

            IN - OUT =         -14.8125              IN - OUT =          -3.3750

 PERCENT DISCREPANCY =          -0.00     PERCENT DISCREPANCY =          -0.03






         TIME SUMMARY AT END OF TIME STEP   12 IN STRESS PERIOD    2
                    SECONDS     MINUTES      HOURS       DAYS        YEARS
                    -----------------------------------------------------------
   TIME STEP LENGTH  86400.      1440.0      24.000      1.0000     2.73785E-03
 STRESS PERIOD TIME 1.03680E+06  17280.      288.00      12.000     3.28542E-02
         TOTAL TIME 1.12320E+06  18720.      312.00      13.000     3.55921E-02
1

 SOLVING FOR HEAD 

    ------------------------------------------------
       NWT REQUIRED            3 OUTER ITERATIONS 
       AND A TOTAL OF          3 INNER ITERATIONS.
    ------------------------------------------------

 OUTPUT CONTROL FOR STRESS PERIOD    2   TIME STEP   13
    SAVE HEAD FOR ALL LAYERS
    SAVE DRAWDOWN FOR ALL LAYERS
    SAVE BUDGET
    PRINT HEAD FOR ALL LAYERS
    PRINT BUDGET
1
              HEAD IN LAYER   1 AT END OF TIME STEP  13 IN STRESS PERIOD    2
  ---------------------------------------------------------------------------

            1           2           3           4           5           6           7           8           9          10
           11          12          13          14          15          16          17          18          19          20
 ........................................................................................................................
   1    0.000       0.000       0.000       0.000       0.000       7.200       7.190       7.212       7.230       7.240    
        7.242       7.237       7.273       7.808       7.280       7.259       7.286       7.304       0.000       0.000    
   2    0.000       0.000       0.000       0.000       7.212       7.198       7.147       7.205       7.226       7.236    
        7.238       7.234       7.263       7.812       7.270       7.248       7.284       7.306       0.000       0.000    
   3    0.000       0.000       0.000       0.000       7.217       7.244       7.249       7.252       7.252       7.257    
        7.257       7.248       7.249       7.813       7.255       7.203       7.283       7.314       0.000       0.000    
   4    0.000       0.000       0.000       7.230       7.275       7.799       7.795       7.803       7.814       7.810    
        7.800       7.712       7.294       7.822       7.275       7.269       7.309       7.335       0.000       0.000    
   5    0.000       0.000       7.378       7.538       7.813       7.736       7.293       7.275       7.272       7.270    
        7.285       7.779       7.824       7.717       7.287       7.303       7.338       7.365       7.389       0.000    
   6    0.000       7.819       7.828       7.798       7.470       7.276       7.261       7.265       7.263       7.259    
        7.260       7.284       7.293       7.291       7.297       7.330       7.363       7.385       7.395       0.000    
   7    0.000       7.279       7.287       7.288       7.275       7.279       7.286       7.286       7.278       7.264    
        7.278       7.287       7.294       7.300       7.309       7.348       7.381       7.402       0.000       0.000    
   8    0.000       7.270       7.286       7.293       7.299       7.306       7.309       7.304       7.287       7.230    
        7.288       7.308       7.317       7.315       7.278       7.358       7.399       7.423       0.000       0.000    
   9    0.000       0.000       7.313       7.317       7.321       7.325       7.326       7.321       7.311       7.297    
        7.314       7.328       7.337       7.343       7.347       7.384       7.418       7.449       7.482       7.499    
  10    0.000       0.000       7.328       7.330       7.333       7.335       7.335       7.331       7.325       7.320    
        7.328       7.339       7.349       7.358       7.372       7.399       7.429       7.458       7.485       7.499    

 HEAD WILL BE SAVED ON UNIT   51 AT END OF TIME STEP   13, STRESS PERIOD    2

 DRAWDOWN WILL BE SAVED ON UNIT   52 AT END OF TIME STEP   13, STRESS PERIOD    2
1
  VOLUMETRIC BUDGET FOR ENTIRE MODEL AT END OF TIME STEP   13, STRESS PERIOD   2
  ------------------------------------------------------------------------------

     CUMULATIVE VOLUMES      L**3       RATES FOR THIS TIME STEP      L**3/T
     ------------------                 ------------------------

           IN:                                      IN:
           ---                                      ---
             STORAGE =         870.4884               STORAGE =          48.1051
       CONSTANT HEAD =           0.0000         CONSTANT HEAD =           0.0000
               WELLS =           0.0000                 WELLS =           0.0000
       RIVER LEAKAGE =      492269.1250         RIVER LEAKAGE =       10371.8232
            RECHARGE =        8226.9463              RECHARGE =         599.7326

            TOTAL IN =      501366.5625              TOTAL IN =       11019.6611

          OUT:                                     OUT:
          ----                                     ----
             STORAGE =      497644.1250               STORAGE =       10768.0547
       CONSTANT HEAD =           0.0000         CONSTANT HEAD =           0.0000
               WELLS =        3471.3669                 WELLS =         254.5907
       RIVER LEAKAGE =         268.8873         RIVER LEAKAGE =           0.0000
            RECHARGE =           0.0000              RECHARGE =           0.0000

           TOTAL OUT =      501384.3750             TOTAL OUT =       11022.6455

            IN - OUT =         -17.8125              IN - OUT =          -2.9844

 PERCENT DISCREPANCY =          -0.00     PERCENT DISCREPANCY =          -0.03






         TIME SUMMARY AT END OF TIME STEP   13 IN STRESS PERIOD    2
                    SECONDS     MINUTES      HOURS       DAYS        YEARS
                    -----------------------------------------------------------
   TIME STEP LENGTH  86400.      1440.0      24.000      1.0000     2.73785E-03
 STRESS PERIOD TIME 1.12320E+06  18720.      312.00      13.000     3.55921E-02
         TOTAL TIME 1.20960E+06  20160.      336.00      14.000     3.83299E-02
1

 SOLVING FOR HEAD 

    ------------------------------------------------
       NWT REQUIRED            3 OUTER ITERATIONS 
       AND A TOTAL OF          3 INNER ITERATIONS.
    ------------------------------------------------

 OUTPUT CONTROL FOR STRESS PERIOD    2   TIME STEP   14
    SAVE HEAD FOR ALL LAYERS
    SAVE DRAWDOWN FOR ALL LAYERS
    SAVE BUDGET
    PRINT HEAD FOR ALL LAYERS
    PRINT BUDGET
1
              HEAD IN LAYER   1 AT END OF TIME STEP  14 IN STRESS PERIOD    2
  ---------------------------------------------------------------------------

            1           2           3           4           5           6           7           8           9          10
           11          12          13          14          15          16          17          18          19          20
 ........................................................................................................................
   1    0.000       0.000       0.000       0.000       0.000       7.200       7.190       7.212       7.230       7.240    
        7.242       7.238       7.278       7.811       7.285       7.259       7.286       7.304       0.000       0.000    
   2    0.000       0.000       0.000       0.000       7.212       7.198       7.147       7.205       7.226       7.236    
        7.238       7.234       7.267       7.815       7.273       7.248       7.284       7.306       0.000       0.000    
   3    0.000       0.000       0.000       0.000       7.217       7.248       7.254       7.257       7.256       7.260    
        7.260       7.250       7.252       7.817       7.258       7.203       7.283       7.314       0.000       0.000    
   4    0.000       0.000       0.000       7.233       7.281       7.803       7.799       7.807       7.817       7.813    
        7.805       7.724       7.302       7.824       7.277       7.269       7.309       7.335       0.000       0.000    
   5    0.000       0.000       7.390       7.554       7.817       7.747       7.299       7.278       7.275       7.273    
        7.290       7.787       7.826       7.729       7.289       7.304       7.338       7.365       7.389       0.000    
   6    0.000       7.823       7.829       7.803       7.484       7.280       7.261       7.265       7.264       7.259    
        7.261       7.287       7.296       7.294       7.297       7.330       7.363       7.385       7.395       0.000    
   7    0.000       7.283       7.291       7.291       7.277       7.279       7.286       7.286       7.278       7.264    
        7.278       7.288       7.294       7.300       7.309       7.348       7.382       7.402       0.000       0.000    
   8    0.000       7.271       7.286       7.293       7.299       7.306       7.309       7.304       7.287       7.230    
        7.288       7.309       7.317       7.315       7.278       7.358       7.399       7.423       0.000       0.000    
   9    0.000       0.000       7.313       7.317       7.322       7.325       7.326       7.321       7.311       7.297    
        7.314       7.328       7.337       7.343       7.347       7.384       7.418       7.449       7.482       7.499    
  10    0.000       0.000       7.328       7.330       7.333       7.335       7.335       7.331       7.325       7.320    
        7.328       7.339       7.349       7.358       7.372       7.399       7.429       7.458       7.485       7.499    

 HEAD WILL BE SAVED ON UNIT   51 AT END OF TIME STEP   14, STRESS PERIOD    2

 DRAWDOWN WILL BE SAVED ON UNIT   52 AT END OF TIME STEP   14, STRESS PERIOD    2
1
  VOLUMETRIC BUDGET FOR ENTIRE MODEL AT END OF TIME STEP   14, STRESS PERIOD   2
  ------------------------------------------------------------------------------

     CUMULATIVE VOLUMES      L**3       RATES FOR THIS TIME STEP      L**3/T
     ------------------                 ------------------------

           IN:                                      IN:
           ---                                      ---
             STORAGE =         915.9382               STORAGE =          45.4498
       CONSTANT HEAD =           0.0000         CONSTANT HEAD =           0.0000
               WELLS =           0.0000                 WELLS =           0.0000
       RIVER LEAKAGE =      501674.9062         RIVER LEAKAGE =        9405.7861
            RECHARGE =        8826.6787              RECHARGE =         599.7326

            TOTAL IN =      511417.5312              TOTAL IN =       10050.9688

          OUT:                                     OUT:
          ----                                     ----
             STORAGE =      507443.1875               STORAGE =        9799.0566
       CONSTANT HEAD =           0.0000         CONSTANT HEAD =           0.0000
               WELLS =        3725.9575                 WELLS =         254.5907
       RIVER LEAKAGE =         268.8873         RIVER LEAKAGE =           0.0000
            RECHARGE =           0.0000              RECHARGE =           0.0000

           TOTAL OUT =      511438.0312             TOTAL OUT =       10053.6475

            IN - OUT =         -20.5000              IN - OUT =          -2.6787

 PERCENT DISCREPANCY =          -0.00     PERCENT DISCREPANCY =          -0.03






         TIME SUMMARY AT END OF TIME STEP   14 IN STRESS PERIOD    2
                    SECONDS     MINUTES      HOURS       DAYS        YEARS
                    -----------------------------------------------------------
   TIME STEP LENGTH  86400.      1440.0      24.000      1.0000     2.73785E-03
 STRESS PERIOD TIME 1.20960E+06  20160.      336.00      14.000     3.83299E-02
         TOTAL TIME 1.29600E+06  21600.      360.00      15.000     4.10678E-02
1

 SOLVING FOR HEAD 

    ------------------------------------------------
       NWT REQUIRED            3 OUTER ITERATIONS 
       AND A TOTAL OF          3 INNER ITERATIONS.
    ------------------------------------------------

 OUTPUT CONTROL FOR STRESS PERIOD    2   TIME STEP   15
    SAVE HEAD FOR ALL LAYERS
    SAVE DRAWDOWN FOR ALL LAYERS
    SAVE BUDGET
    PRINT HEAD FOR ALL LAYERS
    PRINT BUDGET
1
              HEAD IN LAYER   1 AT END OF TIME STEP  15 IN STRESS PERIOD    2
  ---------------------------------------------------------------------------

            1           2           3           4           5           6           7           8           9          10
           11          12          13          14          15          16          17          18          19          20
 ........................................................................................................................
   1    0.000       0.000       0.000       0.000       0.000       7.200       7.190       7.212       7.230       7.240    
        7.242       7.238       7.282       7.813       7.290       7.260       7.287       7.304       0.000       0.000    
   2    0.000       0.000       0.000       0.000       7.212       7.198       7.147       7.205       7.226       7.236    
        7.238       7.235       7.270       7.817       7.277       7.248       7.284       7.306       0.000       0.000    
   3    0.000       0.000       0.000       0.000       7.218       7.251       7.259       7.261       7.259       7.263    
        7.263       7.253       7.256       7.819       7.260       7.203       7.283       7.314       0.000       0.000    
   4    0.000       0.000       0.000       7.235       7.286       7.807       7.802       7.810       7.820       7.816    
        7.809       7.736       7.309       7.826       7.280       7.269       7.309       7.335       0.000       0.000    
   5    0.000       0.000       7.401       7.569       7.819       7.757       7.305       7.282       7.278       7.276    
        7.295       7.793       7.827       7.740       7.292       7.304       7.338       7.365       7.389       0.000    
   6    0.000       7.826       7.830       7.808       7.497       7.283       7.262       7.265       7.264       7.259    
        7.261       7.290       7.299       7.297       7.297       7.331       7.364       7.385       7.395       0.000    
   7    0.000       7.286       7.294       7.294       7.278       7.279       7.286       7.286       7.278       7.264    
        7.278       7.288       7.295       7.300       7.309       7.348       7.382       7.402       0.000       0.000    
   8    0.000       7.271       7.286       7.293       7.299       7.306       7.309       7.304       7.287       7.229    
        7.288       7.309       7.317       7.315       7.277       7.358       7.399       7.423       0.000       0.000    
   9    0.000       0.000       7.314       7.317       7.322       7.325       7.326       7.321       7.311       7.297    
        7.314       7.328       7.337       7.343       7.347       7.384       7.418       7.449       7.482       7.499    
  10    0.000       0.000       7.328       7.330       7.333       7.335       7.335       7.331       7.325       7.320    
        7.328       7.339       7.349       7.358       7.372       7.399       7.429       7.459       7.485       7.499    

 HEAD WILL BE SAVED ON UNIT   51 AT END OF TIME STEP   15, STRESS PERIOD    2

 DRAWDOWN WILL BE SAVED ON UNIT   52 AT END OF TIME STEP   15, STRESS PERIOD    2
1
  VOLUMETRIC BUDGET FOR ENTIRE MODEL AT END OF TIME STEP   15, STRESS PERIOD   2
  ------------------------------------------------------------------------------

     CUMULATIVE VOLUMES      L**3       RATES FOR THIS TIME STEP      L**3/T
     ------------------                 ------------------------

           IN:                                      IN:
           ---                                      ---
             STORAGE =         959.2905               STORAGE =          43.3524
       CONSTANT HEAD =           0.0000         CONSTANT HEAD =           0.0000
               WELLS =           0.0000                 WELLS =           0.0000
       RIVER LEAKAGE =      510310.8438         RIVER LEAKAGE =        8635.9277
            RECHARGE =        9426.4111              RECHARGE =         599.7326

            TOTAL IN =      520696.5312              TOTAL IN =        9279.0127

          OUT:                                     OUT:
          ----                                     ----
             STORAGE =      516470.0625               STORAGE =        9026.8594
       CONSTANT HEAD =           0.0000         CONSTANT HEAD =           0.0000
               WELLS =        3980.5481                 WELLS =         254.5907
       RIVER LEAKAGE =         268.8873         RIVER LEAKAGE =           0.0000
            RECHARGE =           0.0000              RECHARGE =           0.0000

           TOTAL OUT =      520719.5000             TOTAL OUT =        9281.4502

            IN - OUT =         -22.9688              IN - OUT =          -2.4375

 PERCENT DISCREPANCY =          -0.00     PERCENT DISCREPANCY =          -0.03






         TIME SUMMARY AT END OF TIME STEP   15 IN STRESS PERIOD    2
                    SECONDS     MINUTES      HOURS       DAYS        YEARS
                    -----------------------------------------------------------
   TIME STEP LENGTH  86400.      1440.0      24.000      1.0000     2.73785E-03
 STRESS PERIOD TIME 1.29600E+06  21600.      360.00      15.000     4.10678E-02
         TOTAL TIME 1.38240E+06  23040.      384.00      16.000     4.38056E-02
1

 SOLVING FOR HEAD 

    ------------------------------------------------
       NWT REQUIRED            3 OUTER ITERATIONS 
       AND A TOTAL OF          3 INNER ITERATIONS.
    ------------------------------------------------

 OUTPUT CONTROL FOR STRESS PERIOD    2   TIME STEP   16
    SAVE HEAD FOR ALL LAYERS
    SAVE DRAWDOWN FOR ALL LAYERS
    SAVE BUDGET
    PRINT HEAD FOR ALL LAYERS
    PRINT BUDGET
1
              HEAD IN LAYER   1 AT END OF TIME STEP  16 IN STRESS PERIOD    2
  ---------------------------------------------------------------------------

            1           2           3           4           5           6           7           8           9          10
           11          12          13          14          15          16          17          18          19          20
 ........................................................................................................................
   1    0.000       0.000       0.000       0.000       0.000       7.200       7.190       7.212       7.230       7.240    
        7.242       7.238       7.287       7.815       7.294       7.260       7.287       7.304       0.000       0.000    
   2    0.000       0.000       0.000       0.000       7.212       7.198       7.147       7.206       7.227       7.236    
        7.238       7.235       7.274       7.819       7.281       7.248       7.284       7.306       0.000       0.000    
   3    0.000       0.000       0.000       0.000       7.219       7.255       7.264       7.265       7.262       7.267    
        7.266       7.256       7.259       7.822       7.263       7.202       7.283       7.314       0.000       0.000    
   4    0.000       0.000       0.000       7.237       7.292       7.810       7.805       7.812       7.821       7.818    
        7.812       7.745       7.316       7.827       7.283       7.270       7.309       7.335       0.000       0.000    
   5    0.000       0.000       7.413       7.583       7.821       7.765       7.311       7.286       7.281       7.279    
        7.301       7.798       7.828       7.749       7.294       7.304       7.338       7.366       7.389       0.000    
   6    0.000       7.828       7.831       7.811       7.510       7.287       7.262       7.266       7.264       7.260    
        7.262       7.293       7.302       7.300       7.298       7.331       7.364       7.385       7.395       0.000    
   7    0.000       7.289       7.297       7.297       7.280       7.280       7.286       7.286       7.278       7.264    
        7.278       7.288       7.295       7.300       7.309       7.348       7.382       7.402       0.000       0.000    
   8    0.000       7.271       7.286       7.294       7.299       7.306       7.309       7.304       7.287       7.229    
        7.288       7.309       7.317       7.315       7.277       7.358       7.399       7.423       0.000       0.000    
   9    0.000       0.000       7.314       7.317       7.322       7.325       7.326       7.321       7.311       7.297    
        7.314       7.328       7.337       7.343       7.347       7.384       7.418       7.449       7.482       7.499    
  10    0.000       0.000       7.328       7.330       7.333       7.335       7.335       7.331       7.325       7.320    
        7.328       7.339       7.349       7.358       7.372       7.399       7.429       7.459       7.485       7.499    

 HEAD WILL BE SAVED ON UNIT   51 AT END OF TIME STEP   16, STRESS PERIOD    2

 DRAWDOWN WILL BE SAVED ON UNIT   52 AT END OF TIME STEP   16, STRESS PERIOD    2
1
  VOLUMETRIC BUDGET FOR ENTIRE MODEL AT END OF TIME STEP   16, STRESS PERIOD   2
  ------------------------------------------------------------------------------

     CUMULATIVE VOLUMES      L**3       RATES FOR THIS TIME STEP      L**3/T
     ------------------                 ------------------------

           IN:                                      IN:
           ---                                      ---
             STORAGE =        1001.4933               STORAGE =          42.2028
       CONSTANT HEAD =           0.0000         CONSTANT HEAD =           0.0000
               WELLS =           0.0000                 WELLS =           0.0000
       RIVER LEAKAGE =      518327.2812         RIVER LEAKAGE =        8016.4468
            RECHARGE =       10026.1436              RECHARGE =         599.7326

            TOTAL IN =      529354.9375              TOTAL IN =        8658.3818

          OUT:                                     OUT:
          ----                                     ----
             STORAGE =      524876.1250               STORAGE =        8406.0361
       CONSTANT HEAD =           0.0000         CONSTANT HEAD =           0.0000
               WELLS =        4235.1387                 WELLS =         254.5907
       RIVER LEAKAGE =         268.8873         RIVER LEAKAGE =           0.0000
            RECHARGE =           0.0000              RECHARGE =           0.0000

           TOTAL OUT =      529380.1250             TOTAL OUT =        8660.6270

            IN - OUT =         -25.1875              IN - OUT =          -2.2451

 PERCENT DISCREPANCY =          -0.00     PERCENT DISCREPANCY =          -0.03






         TIME SUMMARY AT END OF TIME STEP   16 IN STRESS PERIOD    2
                    SECONDS     MINUTES      HOURS       DAYS        YEARS
                    -----------------------------------------------------------
   TIME STEP LENGTH  86400.      1440.0      24.000      1.0000     2.73785E-03
 STRESS PERIOD TIME 1.38240E+06  23040.      384.00      16.000     4.38056E-02
         TOTAL TIME 1.46880E+06  24480.      408.00      17.000     4.65435E-02
1

 SOLVING FOR HEAD 

    ------------------------------------------------
       NWT REQUIRED            3 OUTER ITERATIONS 
       AND A TOTAL OF          3 INNER ITERATIONS.
    ------------------------------------------------

 OUTPUT CONTROL FOR STRESS PERIOD    2   TIME STEP   17
    SAVE HEAD FOR ALL LAYERS
    SAVE DRAWDOWN FOR ALL LAYERS
    SAVE BUDGET
    PRINT HEAD FOR ALL LAYERS
    PRINT BUDGET
1
              HEAD IN LAYER   1 AT END OF TIME STEP  17 IN STRESS PERIOD    2
  ---------------------------------------------------------------------------

            1           2           3           4           5           6           7           8           9          10
           11          12          13          14          15          16          17          18          19          20
 ........................................................................................................................
   1    0.000       0.000       0.000       0.000       0.000       7.200       7.190       7.212       7.230       7.240    
        7.242       7.239       7.292       7.816       7.299       7.260       7.287       7.304       0.000       0.000    
   2    0.000       0.000       0.000       0.000       7.213       7.199       7.147       7.206       7.227       7.237    
        7.239       7.236       7.278       7.820       7.285       7.249       7.284       7.306       0.000       0.000    
   3    0.000       0.000       0.000       0.000       7.219       7.259       7.269       7.269       7.265       7.270    
        7.269       7.259       7.262       7.823       7.266       7.202       7.283       7.314       0.000       0.000    
   4    0.000       0.000       0.000       7.240       7.297       7.812       7.807       7.814       7.823       7.820    
        7.814       7.754       7.324       7.828       7.285       7.270       7.309       7.335       0.000       0.000    
   5    0.000       0.000       7.424       7.596       7.823       7.772       7.317       7.290       7.285       7.283    
        7.306       7.802       7.829       7.758       7.296       7.304       7.338       7.366       7.389       0.000    
   6    0.000       7.830       7.832       7.814       7.523       7.291       7.263       7.266       7.264       7.260    
        7.262       7.296       7.305       7.302       7.298       7.331       7.364       7.385       7.395       0.000    
   7    0.000       7.292       7.300       7.300       7.282       7.280       7.286       7.286       7.278       7.264    
        7.278       7.288       7.295       7.300       7.309       7.348       7.382       7.402       0.000       0.000    
   8    0.000       7.271       7.287       7.294       7.299       7.306       7.309       7.304       7.287       7.228    
        7.288       7.309       7.317       7.315       7.276       7.358       7.399       7.423       0.000       0.000    
   9    0.000       0.000       7.314       7.317       7.322       7.325       7.326       7.321       7.311       7.297    
        7.314       7.328       7.337       7.343       7.347       7.384       7.418       7.449       7.482       7.499    
  10    0.000       0.000       7.328       7.330       7.333       7.335       7.335       7.331       7.325       7.320    
        7.328       7.339       7.349       7.358       7.372       7.399       7.429       7.459       7.485       7.499    

 HEAD WILL BE SAVED ON UNIT   51 AT END OF TIME STEP   17, STRESS PERIOD    2

 DRAWDOWN WILL BE SAVED ON UNIT   52 AT END OF TIME STEP   17, STRESS PERIOD    2
1
  VOLUMETRIC BUDGET FOR ENTIRE MODEL AT END OF TIME STEP   17, STRESS PERIOD   2
  ------------------------------------------------------------------------------

     CUMULATIVE VOLUMES      L**3       RATES FOR THIS TIME STEP      L**3/T
     ------------------                 ------------------------

           IN:                                      IN:
           ---                                      ---
             STORAGE =        1042.5739               STORAGE =          41.0805
       CONSTANT HEAD =           0.0000         CONSTANT HEAD =           0.0000
               WELLS =           0.0000                 WELLS =           0.0000
       RIVER LEAKAGE =      525840.1250         RIVER LEAKAGE =        7512.8599
            RECHARGE =       10625.8760              RECHARGE =         599.7326

            TOTAL IN =      537508.5625              TOTAL IN =        8153.6729

          OUT:                                     OUT:
          ----                                     ----
             STORAGE =      532777.3125               STORAGE =        7901.1724
       CONSTANT HEAD =           0.0000         CONSTANT HEAD =           0.0000
               WELLS =        4489.7295                 WELLS =         254.5907
       RIVER LEAKAGE =         268.8873         RIVER LEAKAGE =           0.0000
            RECHARGE =           0.0000              RECHARGE =           0.0000

           TOTAL OUT =      537535.9375             TOTAL OUT =        8155.7632

            IN - OUT =         -27.3750              IN - OUT =          -2.0903

 PERCENT DISCREPANCY =          -0.01     PERCENT DISCREPANCY =          -0.03






         TIME SUMMARY AT END OF TIME STEP   17 IN STRESS PERIOD    2
                    SECONDS     MINUTES      HOURS       DAYS        YEARS
                    -----------------------------------------------------------
   TIME STEP LENGTH  86400.      1440.0      24.000      1.0000     2.73785E-03
 STRESS PERIOD TIME 1.46880E+06  24480.      408.00      17.000     4.65435E-02
         TOTAL TIME 1.55520E+06  25920.      432.00      18.000     4.92813E-02
1

 SOLVING FOR HEAD 

    ------------------------------------------------
       NWT REQUIRED            3 OUTER ITERATIONS 
       AND A TOTAL OF          3 INNER ITERATIONS.
    ------------------------------------------------

 OUTPUT CONTROL FOR STRESS PERIOD    2   TIME STEP   18
    SAVE HEAD FOR ALL LAYERS
    SAVE DRAWDOWN FOR ALL LAYERS
    SAVE BUDGET
    PRINT HEAD FOR ALL LAYERS
    PRINT BUDGET
1
              HEAD IN LAYER   1 AT END OF TIME STEP  18 IN STRESS PERIOD    2
  ---------------------------------------------------------------------------

            1           2           3           4           5           6           7           8           9          10
           11          12          13          14          15          16          17          18          19          20
 ........................................................................................................................
   1    0.000       0.000       0.000       0.000       0.000       7.200       7.190       7.212       7.230       7.240    
        7.242       7.239       7.296       7.817       7.303       7.261       7.287       7.304       0.000       0.000    
   2    0.000       0.000       0.000       0.000       7.213       7.199       7.148       7.206       7.227       7.237    
        7.239       7.236       7.282       7.821       7.289       7.249       7.284       7.306       0.000       0.000    
   3    0.000       0.000       0.000       0.000       7.220       7.262       7.273       7.273       7.268       7.273    
        7.272       7.262       7.265       7.824       7.269       7.202       7.283       7.314       0.000       0.000    
   4    0.000       0.000       0.000       7.242       7.302       7.814       7.808       7.815       7.824       7.821    
        7.816       7.761       7.331       7.829       7.288       7.270       7.309       7.335       0.000       0.000    
   5    0.000       0.000       7.435       7.609       7.824       7.778       7.323       7.294       7.288       7.286    
        7.311       7.805       7.829       7.765       7.299       7.304       7.338       7.366       7.390       0.000    
   6    0.000       7.831       7.832       7.816       7.534       7.295       7.264       7.266       7.265       7.260    
        7.263       7.298       7.308       7.305       7.298       7.331       7.364       7.385       7.395       0.000    
   7    0.000       7.296       7.303       7.303       7.283       7.280       7.286       7.287       7.278       7.264    
        7.278       7.288       7.295       7.301       7.309       7.348       7.382       7.402       0.000       0.000    
   8    0.000       7.272       7.287       7.294       7.300       7.306       7.309       7.304       7.287       7.228    
        7.288       7.309       7.317       7.315       7.276       7.358       7.399       7.423       0.000       0.000    
   9    0.000       0.000       7.314       7.317       7.322       7.325       7.326       7.321       7.311       7.297    
        7.314       7.328       7.338       7.343       7.347       7.384       7.418       7.449       7.482       7.499    
  10    0.000       0.000       7.328       7.330       7.333       7.335       7.335       7.331       7.325       7.320    
        7.328       7.339       7.349       7.358       7.372       7.399       7.429       7.459       7.485       7.499    

 HEAD WILL BE SAVED ON UNIT   51 AT END OF TIME STEP   18, STRESS PERIOD    2

 DRAWDOWN WILL BE SAVED ON UNIT   52 AT END OF TIME STEP   18, STRESS PERIOD    2
1
  VOLUMETRIC BUDGET FOR ENTIRE MODEL AT END OF TIME STEP   18, STRESS PERIOD   2
  ------------------------------------------------------------------------------

     CUMULATIVE VOLUMES      L**3       RATES FOR THIS TIME STEP      L**3/T
     ------------------                 ------------------------

           IN:                                      IN:
           ---                                      ---
             STORAGE =        1082.5452               STORAGE =          39.9713
       CONSTANT HEAD =           0.0000         CONSTANT HEAD =           0.0000
               WELLS =           0.0000                 WELLS =           0.0000
       RIVER LEAKAGE =      532939.3125         RIVER LEAKAGE =        7099.1616
            RECHARGE =       11225.6084              RECHARGE =         599.7326

            TOTAL IN =      545247.5000              TOTAL IN =        7738.8652

          OUT:                                     OUT:
          ----                                     ----
             STORAGE =      540263.5625               STORAGE =        7486.2388
       CONSTANT HEAD =           0.0000         CONSTANT HEAD =           0.0000
               WELLS =        4744.3203                 WELLS =         254.5907
       RIVER LEAKAGE =         268.8873         RIVER LEAKAGE =           0.0000
            RECHARGE =           0.0000              RECHARGE =           0.0000

           TOTAL OUT =      545276.7500             TOTAL OUT =        7740.8296

            IN - OUT =         -29.2500              IN - OUT =          -1.9644

 PERCENT DISCREPANCY =          -0.01     PERCENT DISCREPANCY =          -0.03






         TIME SUMMARY AT END OF TIME STEP   18 IN STRESS PERIOD    2
                    SECONDS     MINUTES      HOURS       DAYS        YEARS
                    -----------------------------------------------------------
   TIME STEP LENGTH  86400.      1440.0      24.000      1.0000     2.73785E-03
 STRESS PERIOD TIME 1.55520E+06  25920.      432.00      18.000     4.92813E-02
         TOTAL TIME 1.64160E+06  27360.      456.00      19.000     5.20192E-02
1

 SOLVING FOR HEAD 

    ------------------------------------------------
       NWT REQUIRED            3 OUTER ITERATIONS 
       AND A TOTAL OF          3 INNER ITERATIONS.
    ------------------------------------------------

 OUTPUT CONTROL FOR STRESS PERIOD    2   TIME STEP   19
    SAVE HEAD FOR ALL LAYERS
    SAVE DRAWDOWN FOR ALL LAYERS
    SAVE BUDGET
    PRINT HEAD FOR ALL LAYERS
    PRINT BUDGET
1
              HEAD IN LAYER   1 AT END OF TIME STEP  19 IN STRESS PERIOD    2
  ---------------------------------------------------------------------------

            1           2           3           4           5           6           7           8           9          10
           11          12          13          14          15          16          17          18          19          20
 ........................................................................................................................
   1    0.000       0.000       0.000       0.000       0.000       7.201       7.190       7.212       7.230       7.240    
        7.242       7.239       7.300       7.817       7.308       7.261       7.287       7.304       0.000       0.000    
   2    0.000       0.000       0.000       0.000       7.213       7.199       7.148       7.207       7.228       7.237    
        7.239       7.237       7.286       7.822       7.292       7.249       7.284       7.306       0.000       0.000    
   3    0.000       0.000       0.000       0.000       7.221       7.266       7.278       7.277       7.272       7.276    
        7.275       7.265       7.269       7.825       7.271       7.202       7.283       7.314       0.000       0.000    
   4    0.000       0.000       0.000       7.245       7.308       7.815       7.810       7.816       7.824       7.822    
        7.818       7.767       7.338       7.830       7.291       7.270       7.309       7.335       0.000       0.000    
   5    0.000       0.000       7.445       7.620       7.825       7.783       7.329       7.297       7.291       7.289    
        7.316       7.808       7.830       7.771       7.301       7.304       7.339       7.366       7.390       0.000    
   6    0.000       7.832       7.833       7.818       7.545       7.299       7.265       7.267       7.265       7.261    
        7.264       7.301       7.311       7.308       7.299       7.331       7.364       7.385       7.395       0.000    
   7    0.000       7.299       7.306       7.306       7.285       7.281       7.286       7.287       7.279       7.264    
        7.278       7.289       7.296       7.301       7.309       7.348       7.382       7.402       0.000       0.000    
   8    0.000       7.272       7.287       7.294       7.300       7.306       7.309       7.305       7.287       7.228    
        7.288       7.309       7.317       7.315       7.276       7.358       7.399       7.423       0.000       0.000    
   9    0.000       0.000       7.314       7.317       7.322       7.325       7.326       7.321       7.311       7.297    
        7.314       7.328       7.338       7.343       7.347       7.384       7.418       7.449       7.482       7.499    
  10    0.000       0.000       7.328       7.330       7.333       7.335       7.335       7.331       7.325       7.320    
        7.328       7.339       7.349       7.358       7.372       7.399       7.430       7.459       7.485       7.499    

 HEAD WILL BE SAVED ON UNIT   51 AT END OF TIME STEP   19, STRESS PERIOD    2

 DRAWDOWN WILL BE SAVED ON UNIT   52 AT END OF TIME STEP   19, STRESS PERIOD    2
1
  VOLUMETRIC BUDGET FOR ENTIRE MODEL AT END OF TIME STEP   19, STRESS PERIOD   2
  ------------------------------------------------------------------------------

     CUMULATIVE VOLUMES      L**3       RATES FOR THIS TIME STEP      L**3/T
     ------------------                 ------------------------

           IN:                                      IN:
           ---                                      ---
             STORAGE =        1121.4121               STORAGE =          38.8670
       CONSTANT HEAD =           0.0000         CONSTANT HEAD =           0.0000
               WELLS =           0.0000                 WELLS =           0.0000
       RIVER LEAKAGE =      539694.9375         RIVER LEAKAGE =        6755.5942
            RECHARGE =       11825.3408              RECHARGE =         599.7326

            TOTAL IN =      552641.6875              TOTAL IN =        7394.1938

          OUT:                                     OUT:
          ----                                     ----
             STORAGE =      547405.0000               STORAGE =        7141.4639
       CONSTANT HEAD =           0.0000         CONSTANT HEAD =           0.0000
               WELLS =        4998.9111                 WELLS =         254.5907
       RIVER LEAKAGE =         268.8873         RIVER LEAKAGE =           0.0000
            RECHARGE =           0.0000              RECHARGE =           0.0000

           TOTAL OUT =      552672.8125             TOTAL OUT =        7396.0547

            IN - OUT =         -31.1250              IN - OUT =          -1.8608

 PERCENT DISCREPANCY =          -0.01     PERCENT DISCREPANCY =          -0.03






         TIME SUMMARY AT END OF TIME STEP   19 IN STRESS PERIOD    2
                    SECONDS     MINUTES      HOURS       DAYS        YEARS
                    -----------------------------------------------------------
   TIME STEP LENGTH  86400.      1440.0      24.000      1.0000     2.73785E-03
 STRESS PERIOD TIME 1.64160E+06  27360.      456.00      19.000     5.20192E-02
         TOTAL TIME 1.72800E+06  28800.      480.00      20.000     5.47570E-02
1

 SOLVING FOR HEAD 

    ------------------------------------------------
       NWT REQUIRED            3 OUTER ITERATIONS 
       AND A TOTAL OF          3 INNER ITERATIONS.
    ------------------------------------------------

 OUTPUT CONTROL FOR STRESS PERIOD    2   TIME STEP   20
    SAVE HEAD FOR ALL LAYERS
    SAVE DRAWDOWN FOR ALL LAYERS
    SAVE BUDGET
    PRINT HEAD FOR ALL LAYERS
    PRINT BUDGET
1
              HEAD IN LAYER   1 AT END OF TIME STEP  20 IN STRESS PERIOD    2
  ---------------------------------------------------------------------------

            1           2           3           4           5           6           7           8           9          10
           11          12          13          14          15          16          17          18          19          20
 ........................................................................................................................
   1    0.000       0.000       0.000       0.000       0.000       7.201       7.190       7.212       7.230       7.240    
        7.242       7.240       7.305       7.818       7.312       7.261       7.287       7.304       0.000       0.000    
   2    0.000       0.000       0.000       0.000       7.213       7.200       7.148       7.207       7.228       7.237    
        7.240       7.237       7.289       7.822       7.296       7.249       7.284       7.306       0.000       0.000    
   3    0.000       0.000       0.000       0.000       7.222       7.269       7.282       7.281       7.275       7.279    
        7.278       7.268       7.272       7.826       7.274       7.202       7.283       7.314       0.000       0.000    
   4    0.000       0.000       0.000       7.248       7.313       7.817       7.811       7.817       7.825       7.823    
        7.819       7.773       7.345       7.830       7.293       7.270       7.309       7.335       0.000       0.000    
   5    0.000       0.000       7.456       7.631       7.826       7.788       7.335       7.301       7.294       7.292    
        7.321       7.810       7.830       7.776       7.303       7.305       7.339       7.366       7.390       0.000    
   6    0.000       7.833       7.833       7.820       7.556       7.303       7.265       7.267       7.265       7.261    
        7.264       7.304       7.314       7.311       7.299       7.331       7.364       7.385       7.395       0.000    
   7    0.000       7.302       7.309       7.309       7.287       7.281       7.286       7.287       7.279       7.264    
        7.278       7.289       7.296       7.301       7.309       7.348       7.382       7.402       0.000       0.000    
   8    0.000       7.272       7.288       7.295       7.300       7.306       7.309       7.305       7.287       7.227    
        7.288       7.309       7.317       7.315       7.275       7.358       7.399       7.423       0.000       0.000    
   9    0.000       0.000       7.314       7.317       7.322       7.325       7.326       7.321       7.311       7.297    
        7.314       7.328       7.338       7.343       7.347       7.384       7.418       7.449       7.482       7.499    
  10    0.000       0.000       7.328       7.330       7.333       7.335       7.335       7.331       7.325       7.320    
        7.328       7.339       7.349       7.358       7.372       7.399       7.430       7.459       7.485       7.499    

 HEAD WILL BE SAVED ON UNIT   51 AT END OF TIME STEP   20, STRESS PERIOD    2

 DRAWDOWN WILL BE SAVED ON UNIT   52 AT END OF TIME STEP   20, STRESS PERIOD    2
1
  VOLUMETRIC BUDGET FOR ENTIRE MODEL AT END OF TIME STEP   20, STRESS PERIOD   2
  ------------------------------------------------------------------------------

     CUMULATIVE VOLUMES      L**3       RATES FOR THIS TIME STEP      L**3/T
     ------------------                 ------------------------

           IN:                                      IN:
           ---                                      ---
             STORAGE =        1159.1750               STORAGE =          37.7630
       CONSTANT HEAD =           0.0000         CONSTANT HEAD =           0.0000
               WELLS =           0.0000                 WELLS =           0.0000
       RIVER LEAKAGE =      546162.0625         RIVER LEAKAGE =        6467.1191
            RECHARGE =       12425.0732              RECHARGE =         599.7326

            TOTAL IN =      559746.3125              TOTAL IN =        7104.6147

          OUT:                                     OUT:
          ----                                     ----
             STORAGE =      554256.8125               STORAGE =        6851.7988
       CONSTANT HEAD =           0.0000         CONSTANT HEAD =           0.0000
               WELLS =        5253.5020                 WELLS =         254.5907
       RIVER LEAKAGE =         268.8873         RIVER LEAKAGE =           0.0000
            RECHARGE =           0.0000              RECHARGE =           0.0000

           TOTAL OUT =      559779.1875             TOTAL OUT =        7106.3896

            IN - OUT =         -32.8750              IN - OUT =          -1.7749

 PERCENT DISCREPANCY =          -0.01     PERCENT DISCREPANCY =          -0.02






         TIME SUMMARY AT END OF TIME STEP   20 IN STRESS PERIOD    2
                    SECONDS     MINUTES      HOURS       DAYS        YEARS
                    -----------------------------------------------------------
   TIME STEP LENGTH  86400.      1440.0      24.000      1.0000     2.73785E-03
 STRESS PERIOD TIME 1.72800E+06  28800.      480.00      20.000     5.47570E-02
         TOTAL TIME 1.81440E+06  30240.      504.00      21.000     5.74949E-02
1

 SOLVING FOR HEAD 

    ------------------------------------------------
       NWT REQUIRED            3 OUTER ITERATIONS 
       AND A TOTAL OF          3 INNER ITERATIONS.
    ------------------------------------------------

 OUTPUT CONTROL FOR STRESS PERIOD    2   TIME STEP   21
    SAVE HEAD FOR ALL LAYERS
    SAVE DRAWDOWN FOR ALL LAYERS
    SAVE BUDGET
    PRINT HEAD FOR ALL LAYERS
    PRINT BUDGET
1
              HEAD IN LAYER   1 AT END OF TIME STEP  21 IN STRESS PERIOD    2
  ---------------------------------------------------------------------------

            1           2           3           4           5           6           7           8           9          10
           11          12          13          14          15          16          17          18          19          20
 ........................................................................................................................
   1    0.000       0.000       0.000       0.000       0.000       7.201       7.190       7.212       7.230       7.240    
        7.242       7.240       7.309       7.818       7.316       7.262       7.287       7.304       0.000       0.000    
   2    0.000       0.000       0.000       0.000       7.213       7.200       7.148       7.208       7.228       7.238    
        7.240       7.238       7.293       7.823       7.299       7.250       7.284       7.306       0.000       0.000    
   3    0.000       0.000       0.000       0.000       7.223       7.273       7.287       7.285       7.278       7.282    
        7.281       7.271       7.275       7.826       7.277       7.201       7.283       7.314       0.000       0.000    
   4    0.000       0.000       0.000       7.251       7.318       7.818       7.811       7.818       7.825       7.824    
        7.820       7.778       7.352       7.831       7.296       7.271       7.309       7.335       0.000       0.000    
   5    0.000       0.000       7.466       7.641       7.827       7.792       7.341       7.304       7.297       7.295    
        7.326       7.812       7.830       7.780       7.306       7.305       7.339       7.366       7.390       0.000    
   6    0.000       7.833       7.833       7.821       7.566       7.307       7.266       7.267       7.266       7.261    
        7.265       7.307       7.317       7.313       7.300       7.331       7.364       7.385       7.395       0.000    
   7    0.000       7.305       7.312       7.312       7.289       7.282       7.286       7.287       7.279       7.264    
        7.278       7.289       7.296       7.301       7.309       7.348       7.382       7.402       0.000       0.000    
   8    0.000       7.273       7.288       7.295       7.300       7.306       7.309       7.305       7.287       7.227    
        7.288       7.309       7.317       7.315       7.275       7.358       7.399       7.423       0.000       0.000    
   9    0.000       0.000       7.314       7.317       7.322       7.325       7.326       7.321       7.311       7.297    
        7.314       7.328       7.338       7.343       7.347       7.384       7.419       7.449       7.483       7.499    
  10    0.000       0.000       7.328       7.330       7.333       7.335       7.335       7.331       7.325       7.320    
        7.328       7.339       7.349       7.359       7.372       7.399       7.430       7.459       7.485       7.499    

 HEAD WILL BE SAVED ON UNIT   51 AT END OF TIME STEP   21, STRESS PERIOD    2

 DRAWDOWN WILL BE SAVED ON UNIT   52 AT END OF TIME STEP   21, STRESS PERIOD    2
1
  VOLUMETRIC BUDGET FOR ENTIRE MODEL AT END OF TIME STEP   21, STRESS PERIOD   2
  ------------------------------------------------------------------------------

     CUMULATIVE VOLUMES      L**3       RATES FOR THIS TIME STEP      L**3/T
     ------------------                 ------------------------

           IN:                                      IN:
           ---                                      ---
             STORAGE =        1195.8350               STORAGE =          36.6599
       CONSTANT HEAD =           0.0000         CONSTANT HEAD =           0.0000
               WELLS =           0.0000                 WELLS =           0.0000
       RIVER LEAKAGE =      552384.3125         RIVER LEAKAGE =        6222.2271
            RECHARGE =       13024.8057              RECHARGE =         599.7326

            TOTAL IN =      566604.9375              TOTAL IN =        6858.6191

          OUT:                                     OUT:
          ----                                     ----
             STORAGE =      560862.5625               STORAGE =        6605.7314
       CONSTANT HEAD =           0.0000         CONSTANT HEAD =           0.0000
               WELLS =        5508.0928                 WELLS =         254.5907
       RIVER LEAKAGE =         268.8873         RIVER LEAKAGE =           0.0000
            RECHARGE =           0.0000              RECHARGE =           0.0000

           TOTAL OUT =      566639.5000             TOTAL OUT =        6860.3223

            IN - OUT =         -34.5625              IN - OUT =          -1.7031

 PERCENT DISCREPANCY =          -0.01     PERCENT DISCREPANCY =          -0.02






         TIME SUMMARY AT END OF TIME STEP   21 IN STRESS PERIOD    2
                    SECONDS     MINUTES      HOURS       DAYS        YEARS
                    -----------------------------------------------------------
   TIME STEP LENGTH  86400.      1440.0      24.000      1.0000     2.73785E-03
 STRESS PERIOD TIME 1.81440E+06  30240.      504.00      21.000     5.74949E-02
         TOTAL TIME 1.90080E+06  31680.      528.00      22.000     6.02327E-02
1

 SOLVING FOR HEAD 

    ------------------------------------------------
       NWT REQUIRED            3 OUTER ITERATIONS 
       AND A TOTAL OF          3 INNER ITERATIONS.
    ------------------------------------------------

 OUTPUT CONTROL FOR STRESS PERIOD    2   TIME STEP   22
    SAVE HEAD FOR ALL LAYERS
    SAVE DRAWDOWN FOR ALL LAYERS
    SAVE BUDGET
    PRINT HEAD FOR ALL LAYERS
    PRINT BUDGET
1
              HEAD IN LAYER   1 AT END OF TIME STEP  22 IN STRESS PERIOD    2
  ---------------------------------------------------------------------------

            1           2           3           4           5           6           7           8           9          10
           11          12          13          14          15          16          17          18          19          20
 ........................................................................................................................
   1    0.000       0.000       0.000       0.000       0.000       7.201       7.190       7.213       7.230       7.240    
        7.242       7.241       7.313       7.819       7.320       7.262       7.287       7.304       0.000       0.000    
   2    0.000       0.000       0.000       0.000       7.213       7.201       7.148       7.208       7.229       7.238    
        7.240       7.238       7.297       7.823       7.303       7.250       7.285       7.306       0.000       0.000    
   3    0.000       0.000       0.000       0.000       7.224       7.276       7.291       7.289       7.281       7.285    
        7.284       7.274       7.279       7.827       7.279       7.201       7.283       7.314       0.000       0.000    
   4    0.000       0.000       0.000       7.253       7.323       7.818       7.812       7.818       7.826       7.824    
        7.821       7.782       7.358       7.831       7.298       7.271       7.309       7.335       0.000       0.000    
   5    0.000       0.000       7.476       7.651       7.828       7.795       7.346       7.308       7.300       7.298    
        7.330       7.814       7.831       7.784       7.308       7.305       7.339       7.366       7.390       0.000    
   6    0.000       7.834       7.833       7.822       7.575       7.311       7.267       7.268       7.266       7.262    
        7.266       7.310       7.320       7.316       7.300       7.331       7.364       7.385       7.395       0.000    
   7    0.000       7.308       7.315       7.315       7.291       7.282       7.287       7.287       7.279       7.264    
        7.278       7.290       7.297       7.302       7.309       7.348       7.382       7.402       0.000       0.000    
   8    0.000       7.273       7.288       7.295       7.300       7.306       7.309       7.305       7.287       7.226    
        7.288       7.309       7.317       7.315       7.275       7.358       7.399       7.423       0.000       0.000    
   9    0.000       0.000       7.314       7.317       7.322       7.325       7.326       7.322       7.311       7.297    
        7.314       7.328       7.338       7.343       7.347       7.384       7.419       7.449       7.483       7.499    
  10    0.000       0.000       7.328       7.330       7.333       7.335       7.335       7.331       7.325       7.320    
        7.328       7.339       7.349       7.359       7.372       7.399       7.430       7.459       7.485       7.499    

 HEAD WILL BE SAVED ON UNIT   51 AT END OF TIME STEP   22, STRESS PERIOD    2

 DRAWDOWN WILL BE SAVED ON UNIT   52 AT END OF TIME STEP   22, STRESS PERIOD    2
1
  VOLUMETRIC BUDGET FOR ENTIRE MODEL AT END OF TIME STEP   22, STRESS PERIOD   2
  ------------------------------------------------------------------------------

     CUMULATIVE VOLUMES      L**3       RATES FOR THIS TIME STEP      L**3/T
     ------------------                 ------------------------

           IN:                                      IN:
           ---                                      ---
             STORAGE =        1231.3932               STORAGE =          35.5582
       CONSTANT HEAD =           0.0000         CONSTANT HEAD =           0.0000
               WELLS =           0.0000                 WELLS =           0.0000
       RIVER LEAKAGE =      558396.3750         RIVER LEAKAGE =        6012.0444
            RECHARGE =       13624.5381              RECHARGE =         599.7326

            TOTAL IN =      573252.3125              TOTAL IN =        6647.3350

          OUT:                                     OUT:
          ----                                     ----
             STORAGE =      567256.9375               STORAGE =        6394.3862
       CONSTANT HEAD =           0.0000         CONSTANT HEAD =           0.0000
               WELLS =        5762.6836                 WELLS =         254.5907
       RIVER LEAKAGE =         268.8873         RIVER LEAKAGE =           0.0000
            RECHARGE =           0.0000              RECHARGE =           0.0000

           TOTAL OUT =      573288.5000             TOTAL OUT =        6648.9771

            IN - OUT =         -36.1875              IN - OUT =          -1.6421

 PERCENT DISCREPANCY =          -0.01     PERCENT DISCREPANCY =          -0.02






         TIME SUMMARY AT END OF TIME STEP   22 IN STRESS PERIOD    2
                    SECONDS     MINUTES      HOURS       DAYS        YEARS
                    -----------------------------------------------------------
   TIME STEP LENGTH  86400.      1440.0      24.000      1.0000     2.73785E-03
 STRESS PERIOD TIME 1.90080E+06  31680.      528.00      22.000     6.02327E-02
         TOTAL TIME 1.98720E+06  33120.      552.00      23.000     6.29706E-02
1

 SOLVING FOR HEAD 

    ------------------------------------------------
       NWT REQUIRED            3 OUTER ITERATIONS 
       AND A TOTAL OF          3 INNER ITERATIONS.
    ------------------------------------------------

 OUTPUT CONTROL FOR STRESS PERIOD    2   TIME STEP   23
    SAVE HEAD FOR ALL LAYERS
    SAVE DRAWDOWN FOR ALL LAYERS
    SAVE BUDGET
    PRINT HEAD FOR ALL LAYERS
    PRINT BUDGET
1
              HEAD IN LAYER   1 AT END OF TIME STEP  23 IN STRESS PERIOD    2
  ---------------------------------------------------------------------------

            1           2           3           4           5           6           7           8           9          10
           11          12          13          14          15          16          17          18          19          20
 ........................................................................................................................
   1    0.000       0.000       0.000       0.000       0.000       7.201       7.190       7.213       7.231       7.240    
        7.242       7.241       7.318       7.819       7.325       7.263       7.287       7.304       0.000       0.000    
   2    0.000       0.000       0.000       0.000       7.213       7.201       7.149       7.209       7.229       7.238    
        7.241       7.239       7.300       7.823       7.307       7.250       7.285       7.306       0.000       0.000    
   3    0.000       0.000       0.000       0.000       7.225       7.279       7.295       7.293       7.284       7.288    
        7.287       7.277       7.282       7.827       7.282       7.201       7.283       7.314       0.000       0.000    
   4    0.000       0.000       0.000       7.256       7.328       7.819       7.813       7.819       7.826       7.824    
        7.821       7.785       7.365       7.831       7.301       7.271       7.309       7.335       0.000       0.000    
   5    0.000       0.000       7.486       7.659       7.828       7.798       7.352       7.312       7.303       7.302    
        7.335       7.815       7.831       7.788       7.310       7.305       7.339       7.366       7.390       0.000    
   6    0.000       7.834       7.834       7.823       7.584       7.315       7.268       7.268       7.266       7.262    
        7.267       7.312       7.323       7.319       7.300       7.331       7.364       7.385       7.396       0.000    
   7    0.000       7.311       7.318       7.318       7.293       7.283       7.287       7.287       7.279       7.264    
        7.278       7.290       7.297       7.302       7.309       7.348       7.382       7.402       0.000       0.000    
   8    0.000       7.274       7.289       7.296       7.300       7.306       7.309       7.305       7.287       7.226    
        7.288       7.309       7.317       7.315       7.274       7.358       7.399       7.423       0.000       0.000    
   9    0.000       0.000       7.314       7.318       7.322       7.325       7.326       7.322       7.311       7.297    
        7.314       7.328       7.338       7.343       7.347       7.384       7.419       7.449       7.483       7.499    
  10    0.000       0.000       7.328       7.330       7.333       7.335       7.335       7.331       7.325       7.320    
        7.328       7.339       7.349       7.359       7.372       7.399       7.430       7.459       7.485       7.499    

 HEAD WILL BE SAVED ON UNIT   51 AT END OF TIME STEP   23, STRESS PERIOD    2

 DRAWDOWN WILL BE SAVED ON UNIT   52 AT END OF TIME STEP   23, STRESS PERIOD    2
1
  VOLUMETRIC BUDGET FOR ENTIRE MODEL AT END OF TIME STEP   23, STRESS PERIOD   2
  ------------------------------------------------------------------------------

     CUMULATIVE VOLUMES      L**3       RATES FOR THIS TIME STEP      L**3/T
     ------------------                 ------------------------

           IN:                                      IN:
           ---                                      ---
             STORAGE =        1265.8541               STORAGE =          34.4610
       CONSTANT HEAD =           0.0000         CONSTANT HEAD =           0.0000
               WELLS =           0.0000                 WELLS =           0.0000
       RIVER LEAKAGE =      564226.1250         RIVER LEAKAGE =        5829.7241
            RECHARGE =       14224.2705              RECHARGE =         599.7326

            TOTAL IN =      579716.2500              TOTAL IN =        6463.9175

          OUT:                                     OUT:
          ----                                     ----
             STORAGE =      573467.8750               STORAGE =        6210.9160
       CONSTANT HEAD =           0.0000         CONSTANT HEAD =           0.0000
               WELLS =        6017.2744                 WELLS =         254.5907
       RIVER LEAKAGE =         268.8873         RIVER LEAKAGE =           0.0000
            RECHARGE =           0.0000              RECHARGE =           0.0000

           TOTAL OUT =      579754.0000             TOTAL OUT =        6465.5068

            IN - OUT =         -37.7500              IN - OUT =          -1.5894

 PERCENT DISCREPANCY =          -0.01     PERCENT DISCREPANCY =          -0.02






         TIME SUMMARY AT END OF TIME STEP   23 IN STRESS PERIOD    2
                    SECONDS     MINUTES      HOURS       DAYS        YEARS
                    -----------------------------------------------------------
   TIME STEP LENGTH  86400.      1440.0      24.000      1.0000     2.73785E-03
 STRESS PERIOD TIME 1.98720E+06  33120.      552.00      23.000     6.29706E-02
         TOTAL TIME 2.07360E+06  34560.      576.00      24.000     6.57084E-02
1

 SOLVING FOR HEAD 

    ------------------------------------------------
       NWT REQUIRED            3 OUTER ITERATIONS 
       AND A TOTAL OF          3 INNER ITERATIONS.
    ------------------------------------------------

 OUTPUT CONTROL FOR STRESS PERIOD    2   TIME STEP   24
    SAVE HEAD FOR ALL LAYERS
    SAVE DRAWDOWN FOR ALL LAYERS
    SAVE BUDGET
    PRINT HEAD FOR ALL LAYERS
    PRINT BUDGET
1
              HEAD IN LAYER   1 AT END OF TIME STEP  24 IN STRESS PERIOD    2
  ---------------------------------------------------------------------------

            1           2           3           4           5           6           7           8           9          10
           11          12          13          14          15          16          17          18          19          20
 ........................................................................................................................
   1    0.000       0.000       0.000       0.000       0.000       7.201       7.190       7.213       7.231       7.240    
        7.243       7.242       7.322       7.819       7.329       7.263       7.287       7.304       0.000       0.000    
   2    0.000       0.000       0.000       0.000       7.213       7.201       7.149       7.209       7.229       7.239    
        7.241       7.240       7.304       7.823       7.310       7.251       7.285       7.306       0.000       0.000    
   3    0.000       0.000       0.000       0.000       7.226       7.283       7.300       7.296       7.287       7.291    
        7.290       7.280       7.285       7.828       7.285       7.201       7.283       7.314       0.000       0.000    
   4    0.000       0.000       0.000       7.259       7.333       7.820       7.813       7.819       7.826       7.825    
        7.822       7.789       7.372       7.831       7.303       7.271       7.309       7.335       0.000       0.000    
   5    0.000       0.000       7.495       7.668       7.829       7.800       7.357       7.315       7.306       7.305    
        7.340       7.816       7.831       7.791       7.313       7.305       7.339       7.366       7.390       0.000    
   6    0.000       7.834       7.834       7.824       7.593       7.319       7.269       7.269       7.267       7.262    
        7.267       7.315       7.326       7.321       7.301       7.331       7.364       7.385       7.396       0.000    
   7    0.000       7.314       7.321       7.320       7.295       7.283       7.287       7.287       7.279       7.264    
        7.278       7.290       7.297       7.302       7.309       7.348       7.382       7.402       0.000       0.000    
   8    0.000       7.274       7.289       7.296       7.301       7.306       7.309       7.305       7.287       7.226    
        7.288       7.309       7.317       7.315       7.274       7.358       7.399       7.423       0.000       0.000    
   9    0.000       0.000       7.314       7.318       7.322       7.325       7.326       7.322       7.311       7.297    
        7.314       7.328       7.338       7.343       7.347       7.384       7.419       7.449       7.483       7.499    
  10    0.000       0.000       7.328       7.330       7.333       7.335       7.335       7.331       7.325       7.320    
        7.329       7.340       7.349       7.359       7.372       7.399       7.430       7.459       7.485       7.499    

 HEAD WILL BE SAVED ON UNIT   51 AT END OF TIME STEP   24, STRESS PERIOD    2

 DRAWDOWN WILL BE SAVED ON UNIT   52 AT END OF TIME STEP   24, STRESS PERIOD    2
1
  VOLUMETRIC BUDGET FOR ENTIRE MODEL AT END OF TIME STEP   24, STRESS PERIOD   2
  ------------------------------------------------------------------------------

     CUMULATIVE VOLUMES      L**3       RATES FOR THIS TIME STEP      L**3/T
     ------------------                 ------------------------

           IN:                                      IN:
           ---                                      ---
             STORAGE =        1299.2606               STORAGE =          33.4064
       CONSTANT HEAD =           0.0000         CONSTANT HEAD =           0.0000
               WELLS =           0.0000                 WELLS =           0.0000
       RIVER LEAKAGE =      569896.0625         RIVER LEAKAGE =        5669.9355
            RECHARGE =       14824.0029              RECHARGE =         599.7326

            TOTAL IN =      586019.3125              TOTAL IN =        6303.0742

          OUT:                                     OUT:
          ----                                     ----
             STORAGE =      579517.8750               STORAGE =        6050.0273
       CONSTANT HEAD =           0.0000         CONSTANT HEAD =           0.0000
               WELLS =        6271.8652                 WELLS =         254.5907
       RIVER LEAKAGE =         268.8873         RIVER LEAKAGE =           0.0000
            RECHARGE =           0.0000              RECHARGE =           0.0000

           TOTAL OUT =      586058.6250             TOTAL OUT =        6304.6182

            IN - OUT =         -39.3125              IN - OUT =          -1.5439

 PERCENT DISCREPANCY =          -0.01     PERCENT DISCREPANCY =          -0.02






         TIME SUMMARY AT END OF TIME STEP   24 IN STRESS PERIOD    2
                    SECONDS     MINUTES      HOURS       DAYS        YEARS
                    -----------------------------------------------------------
   TIME STEP LENGTH  86400.      1440.0      24.000      1.0000     2.73785E-03
 STRESS PERIOD TIME 2.07360E+06  34560.      576.00      24.000     6.57084E-02
         TOTAL TIME 2.16000E+06  36000.      600.00      25.000     6.84463E-02
1

 SOLVING FOR HEAD 

    ------------------------------------------------
       NWT REQUIRED            3 OUTER ITERATIONS 
       AND A TOTAL OF          3 INNER ITERATIONS.
    ------------------------------------------------

 OUTPUT CONTROL FOR STRESS PERIOD    2   TIME STEP   25
    SAVE HEAD FOR ALL LAYERS
    SAVE DRAWDOWN FOR ALL LAYERS
    SAVE BUDGET
    PRINT HEAD FOR ALL LAYERS
    PRINT BUDGET
1
              HEAD IN LAYER   1 AT END OF TIME STEP  25 IN STRESS PERIOD    2
  ---------------------------------------------------------------------------

            1           2           3           4           5           6           7           8           9          10
           11          12          13          14          15          16          17          18          19          20
 ........................................................................................................................
   1    0.000       0.000       0.000       0.000       0.000       7.201       7.190       7.213       7.231       7.240    
        7.243       7.242       7.326       7.820       7.333       7.264       7.287       7.304       0.000       0.000    
   2    0.000       0.000       0.000       0.000       7.213       7.202       7.149       7.210       7.230       7.239    
        7.241       7.240       7.307       7.824       7.314       7.251       7.285       7.306       0.000       0.000    
   3    0.000       0.000       0.000       0.000       7.227       7.286       7.304       7.300       7.290       7.293    
        7.293       7.282       7.289       7.828       7.287       7.201       7.283       7.314       0.000       0.000    
   4    0.000       0.000       0.000       7.262       7.337       7.820       7.814       7.819       7.826       7.825    
        7.822       7.792       7.378       7.832       7.306       7.271       7.309       7.335       0.000       0.000    
   5    0.000       0.000       7.504       7.675       7.829       7.802       7.363       7.319       7.309       7.308    
        7.344       7.817       7.831       7.793       7.315       7.306       7.339       7.366       7.390       0.000    
   6    0.000       7.835       7.834       7.824       7.601       7.322       7.270       7.269       7.267       7.263    
        7.268       7.318       7.329       7.324       7.301       7.331       7.364       7.386       7.396       0.000    
   7    0.000       7.317       7.324       7.323       7.297       7.284       7.287       7.287       7.279       7.264    
        7.278       7.291       7.298       7.302       7.309       7.348       7.382       7.402       0.000       0.000    
   8    0.000       7.274       7.290       7.296       7.301       7.306       7.309       7.305       7.287       7.225    
        7.288       7.309       7.317       7.315       7.273       7.358       7.399       7.423       0.000       0.000    
   9    0.000       0.000       7.314       7.318       7.322       7.325       7.326       7.322       7.311       7.297    
        7.314       7.328       7.338       7.343       7.347       7.384       7.419       7.449       7.483       7.499    
  10    0.000       0.000       7.328       7.330       7.333       7.336       7.335       7.331       7.325       7.320    
        7.329       7.340       7.349       7.359       7.372       7.399       7.430       7.459       7.485       7.499    

 HEAD WILL BE SAVED ON UNIT   51 AT END OF TIME STEP   25, STRESS PERIOD    2

 DRAWDOWN WILL BE SAVED ON UNIT   52 AT END OF TIME STEP   25, STRESS PERIOD    2
1
  VOLUMETRIC BUDGET FOR ENTIRE MODEL AT END OF TIME STEP   25, STRESS PERIOD   2
  ------------------------------------------------------------------------------

     CUMULATIVE VOLUMES      L**3       RATES FOR THIS TIME STEP      L**3/T
     ------------------                 ------------------------

           IN:                                      IN:
           ---                                      ---
             STORAGE =        1331.6239               STORAGE =          32.3633
       CONSTANT HEAD =           0.0000         CONSTANT HEAD =           0.0000
               WELLS =           0.0000                 WELLS =           0.0000
       RIVER LEAKAGE =      575424.5625         RIVER LEAKAGE =        5528.5044
            RECHARGE =       15423.7354              RECHARGE =         599.7326

            TOTAL IN =      592179.9375              TOTAL IN =        6160.6001

          OUT:                                     OUT:
          ----                                     ----
             STORAGE =      585425.3750               STORAGE =        5907.5132
       CONSTANT HEAD =           0.0000         CONSTANT HEAD =           0.0000
               WELLS =        6526.4561                 WELLS =         254.5907
       RIVER LEAKAGE =         268.8873         RIVER LEAKAGE =           0.0000
            RECHARGE =           0.0000              RECHARGE =           0.0000

           TOTAL OUT =      592220.6875             TOTAL OUT =        6162.1040

            IN - OUT =         -40.7500              IN - OUT =          -1.5039

 PERCENT DISCREPANCY =          -0.01     PERCENT DISCREPANCY =          -0.02






         TIME SUMMARY AT END OF TIME STEP   25 IN STRESS PERIOD    2
                    SECONDS     MINUTES      HOURS       DAYS        YEARS
                    -----------------------------------------------------------
   TIME STEP LENGTH  86400.      1440.0      24.000      1.0000     2.73785E-03
 STRESS PERIOD TIME 2.16000E+06  36000.      600.00      25.000     6.84463E-02
         TOTAL TIME 2.24640E+06  37440.      624.00      26.000     7.11841E-02
1

 SOLVING FOR HEAD 

    ------------------------------------------------
       NWT REQUIRED            3 OUTER ITERATIONS 
       AND A TOTAL OF          3 INNER ITERATIONS.
    ------------------------------------------------

 OUTPUT CONTROL FOR STRESS PERIOD    2   TIME STEP   26
    SAVE HEAD FOR ALL LAYERS
    SAVE DRAWDOWN FOR ALL LAYERS
    SAVE BUDGET
    PRINT HEAD FOR ALL LAYERS
    PRINT BUDGET
1
              HEAD IN LAYER   1 AT END OF TIME STEP  26 IN STRESS PERIOD    2
  ---------------------------------------------------------------------------

            1           2           3           4           5           6           7           8           9          10
           11          12          13          14          15          16          17          18          19          20
 ........................................................................................................................
   1    0.000       0.000       0.000       0.000       0.000       7.201       7.190       7.213       7.231       7.241    
        7.243       7.243       7.330       7.820       7.337       7.264       7.287       7.304       0.000       0.000    
   2    0.000       0.000       0.000       0.000       7.213       7.202       7.150       7.210       7.230       7.240    
        7.242       7.241       7.311       7.824       7.317       7.251       7.285       7.306       0.000       0.000    
   3    0.000       0.000       0.000       0.000       7.228       7.289       7.308       7.304       7.293       7.296    
        7.296       7.285       7.292       7.828       7.290       7.201       7.283       7.314       0.000       0.000    
   4    0.000       0.000       0.000       7.265       7.342       7.820       7.814       7.820       7.827       7.825    
        7.823       7.794       7.385       7.832       7.308       7.272       7.309       7.335       0.000       0.000    
   5    0.000       0.000       7.513       7.683       7.830       7.804       7.368       7.322       7.312       7.311    
        7.349       7.818       7.831       7.795       7.317       7.306       7.339       7.366       7.390       0.000    
   6    0.000       7.835       7.834       7.825       7.608       7.326       7.271       7.270       7.268       7.263    
        7.269       7.320       7.331       7.326       7.302       7.331       7.364       7.386       7.396       0.000    
   7    0.000       7.320       7.327       7.326       7.299       7.284       7.287       7.287       7.279       7.264    
        7.278       7.291       7.298       7.303       7.309       7.349       7.382       7.402       0.000       0.000    
   8    0.000       7.275       7.290       7.297       7.301       7.306       7.309       7.305       7.287       7.225    
        7.288       7.309       7.317       7.315       7.273       7.358       7.399       7.423       0.000       0.000    
   9    0.000       0.000       7.314       7.318       7.322       7.326       7.326       7.322       7.311       7.297    
        7.314       7.328       7.338       7.343       7.347       7.384       7.419       7.449       7.483       7.499    
  10    0.000       0.000       7.328       7.330       7.333       7.336       7.335       7.332       7.325       7.320    
        7.329       7.340       7.349       7.359       7.372       7.399       7.430       7.459       7.485       7.499    

 HEAD WILL BE SAVED ON UNIT   51 AT END OF TIME STEP   26, STRESS PERIOD    2

 DRAWDOWN WILL BE SAVED ON UNIT   52 AT END OF TIME STEP   26, STRESS PERIOD    2
1
  VOLUMETRIC BUDGET FOR ENTIRE MODEL AT END OF TIME STEP   26, STRESS PERIOD   2
  ------------------------------------------------------------------------------

     CUMULATIVE VOLUMES      L**3       RATES FOR THIS TIME STEP      L**3/T
     ------------------                 ------------------------

           IN:                                      IN:
           ---                                      ---
             STORAGE =        1362.9541               STORAGE =          31.3302
       CONSTANT HEAD =           0.0000         CONSTANT HEAD =           0.0000
               WELLS =           0.0000                 WELLS =           0.0000
       RIVER LEAKAGE =      580826.7500         RIVER LEAKAGE =        5402.1616
            RECHARGE =       16023.4678              RECHARGE =         599.7326

            TOTAL IN =      598213.1250              TOTAL IN =        6033.2241

          OUT:                                     OUT:
          ----                                     ----
             STORAGE =      591205.5000               STORAGE =        5780.1021
       CONSTANT HEAD =           0.0000         CONSTANT HEAD =           0.0000
               WELLS =        6781.0469                 WELLS =         254.5907
       RIVER LEAKAGE =         268.8873         RIVER LEAKAGE =           0.0000
            RECHARGE =           0.0000              RECHARGE =           0.0000

           TOTAL OUT =      598255.4375             TOTAL OUT =        6034.6929

            IN - OUT =         -42.3125              IN - OUT =          -1.4688

 PERCENT DISCREPANCY =          -0.01     PERCENT DISCREPANCY =          -0.02






         TIME SUMMARY AT END OF TIME STEP   26 IN STRESS PERIOD    2
                    SECONDS     MINUTES      HOURS       DAYS        YEARS
                    -----------------------------------------------------------
   TIME STEP LENGTH  86400.      1440.0      24.000      1.0000     2.73785E-03
 STRESS PERIOD TIME 2.24640E+06  37440.      624.00      26.000     7.11841E-02
         TOTAL TIME 2.33280E+06  38880.      648.00      27.000     7.39220E-02
1

 SOLVING FOR HEAD 

    ------------------------------------------------
       NWT REQUIRED            3 OUTER ITERATIONS 
       AND A TOTAL OF          3 INNER ITERATIONS.
    ------------------------------------------------

 OUTPUT CONTROL FOR STRESS PERIOD    2   TIME STEP   27
    SAVE HEAD FOR ALL LAYERS
    SAVE DRAWDOWN FOR ALL LAYERS
    SAVE BUDGET
    PRINT HEAD FOR ALL LAYERS
    PRINT BUDGET
1
              HEAD IN LAYER   1 AT END OF TIME STEP  27 IN STRESS PERIOD    2
  ---------------------------------------------------------------------------

            1           2           3           4           5           6           7           8           9          10
           11          12          13          14          15          16          17          18          19          20
 ........................................................................................................................
   1    0.000       0.000       0.000       0.000       0.000       7.201       7.190       7.213       7.231       7.241    
        7.243       7.243       7.334       7.820       7.341       7.265       7.287       7.304       0.000       0.000    
   2    0.000       0.000       0.000       0.000       7.214       7.203       7.150       7.211       7.231       7.240    
        7.242       7.242       7.314       7.824       7.320       7.252       7.285       7.306       0.000       0.000    
   3    0.000       0.000       0.000       0.000       7.229       7.292       7.312       7.307       7.296       7.299    
        7.299       7.288       7.295       7.828       7.292       7.201       7.283       7.314       0.000       0.000    
   4    0.000       0.000       0.000       7.268       7.347       7.821       7.814       7.820       7.827       7.825    
        7.823       7.796       7.391       7.832       7.310       7.272       7.309       7.335       0.000       0.000    
   5    0.000       0.000       7.522       7.689       7.830       7.806       7.373       7.326       7.315       7.314    
        7.353       7.819       7.832       7.797       7.319       7.306       7.339       7.366       7.390       0.000    
   6    0.000       7.835       7.834       7.826       7.616       7.330       7.272       7.270       7.268       7.264    
        7.270       7.323       7.334       7.329       7.302       7.331       7.364       7.386       7.396       0.000    
   7    0.000       7.323       7.330       7.329       7.301       7.285       7.287       7.287       7.279       7.264    
        7.279       7.291       7.299       7.303       7.309       7.349       7.382       7.402       0.000       0.000    
   8    0.000       7.275       7.290       7.297       7.301       7.306       7.309       7.305       7.287       7.225    
        7.288       7.309       7.318       7.315       7.273       7.358       7.399       7.423       0.000       0.000    
   9    0.000       0.000       7.314       7.318       7.322       7.326       7.326       7.322       7.311       7.297    
        7.314       7.328       7.338       7.343       7.347       7.384       7.419       7.449       7.483       7.499    
  10    0.000       0.000       7.328       7.330       7.333       7.336       7.335       7.332       7.325       7.320    
        7.329       7.340       7.349       7.359       7.372       7.399       7.430       7.459       7.485       7.499    

 HEAD WILL BE SAVED ON UNIT   51 AT END OF TIME STEP   27, STRESS PERIOD    2

 DRAWDOWN WILL BE SAVED ON UNIT   52 AT END OF TIME STEP   27, STRESS PERIOD    2
1
  VOLUMETRIC BUDGET FOR ENTIRE MODEL AT END OF TIME STEP   27, STRESS PERIOD   2
  ------------------------------------------------------------------------------

     CUMULATIVE VOLUMES      L**3       RATES FOR THIS TIME STEP      L**3/T
     ------------------                 ------------------------

           IN:                                      IN:
           ---                                      ---
             STORAGE =        1393.2606               STORAGE =          30.3065
       CONSTANT HEAD =           0.0000         CONSTANT HEAD =           0.0000
               WELLS =           0.0000                 WELLS =           0.0000
       RIVER LEAKAGE =      586115.0625         RIVER LEAKAGE =        5288.3149
            RECHARGE =       16623.2012              RECHARGE =         599.7326

            TOTAL IN =      604131.5000              TOTAL IN =        5918.3540

          OUT:                                     OUT:
          ----                                     ----
             STORAGE =      596870.6875               STORAGE =        5665.1997
       CONSTANT HEAD =           0.0000         CONSTANT HEAD =           0.0000
               WELLS =        7035.6377                 WELLS =         254.5907
       RIVER LEAKAGE =         268.8873         RIVER LEAKAGE =           0.0000
            RECHARGE =           0.0000              RECHARGE =           0.0000

           TOTAL OUT =      604175.1875             TOTAL OUT =        5919.7905

            IN - OUT =         -43.6875              IN - OUT =          -1.4365

 PERCENT DISCREPANCY =          -0.01     PERCENT DISCREPANCY =          -0.02






         TIME SUMMARY AT END OF TIME STEP   27 IN STRESS PERIOD    2
                    SECONDS     MINUTES      HOURS       DAYS        YEARS
                    -----------------------------------------------------------
   TIME STEP LENGTH  86400.      1440.0      24.000      1.0000     2.73785E-03
 STRESS PERIOD TIME 2.33280E+06  38880.      648.00      27.000     7.39220E-02
         TOTAL TIME 2.41920E+06  40320.      672.00      28.000     7.66598E-02
1

 SOLVING FOR HEAD 

    ------------------------------------------------
       NWT REQUIRED            3 OUTER ITERATIONS 
       AND A TOTAL OF          3 INNER ITERATIONS.
    ------------------------------------------------

 OUTPUT CONTROL FOR STRESS PERIOD    2   TIME STEP   28
    SAVE HEAD FOR ALL LAYERS
    SAVE DRAWDOWN FOR ALL LAYERS
    SAVE BUDGET
    PRINT HEAD FOR ALL LAYERS
    PRINT BUDGET
1
              HEAD IN LAYER   1 AT END OF TIME STEP  28 IN STRESS PERIOD    2
  ---------------------------------------------------------------------------

            1           2           3           4           5           6           7           8           9          10
           11          12          13          14          15          16          17          18          19          20
 ........................................................................................................................
   1    0.000       0.000       0.000       0.000       0.000       7.201       7.190       7.213       7.231       7.241    
        7.243       7.244       7.338       7.820       7.345       7.265       7.287       7.304       0.000       0.000    
   2    0.000       0.000       0.000       0.000       7.214       7.203       7.150       7.212       7.231       7.240    
        7.243       7.243       7.318       7.824       7.324       7.252       7.285       7.306       0.000       0.000    
   3    0.000       0.000       0.000       0.000       7.230       7.295       7.316       7.311       7.299       7.302    
        7.301       7.291       7.299       7.828       7.295       7.201       7.283       7.314       0.000       0.000    
   4    0.000       0.000       0.000       7.271       7.351       7.821       7.815       7.820       7.827       7.826    
        7.823       7.798       7.397       7.832       7.313       7.272       7.309       7.335       0.000       0.000    
   5    0.000       0.000       7.531       7.696       7.830       7.807       7.378       7.329       7.318       7.317    
        7.358       7.819       7.832       7.799       7.321       7.306       7.339       7.366       7.390       0.000    
   6    0.000       7.835       7.834       7.826       7.623       7.334       7.273       7.271       7.269       7.264    
        7.271       7.326       7.337       7.332       7.303       7.331       7.364       7.386       7.396       0.000    
   7    0.000       7.326       7.333       7.331       7.303       7.285       7.287       7.287       7.279       7.264    
        7.279       7.292       7.299       7.303       7.309       7.349       7.382       7.402       0.000       0.000    
   8    0.000       7.276       7.291       7.298       7.301       7.306       7.309       7.305       7.287       7.224    
        7.288       7.309       7.318       7.315       7.272       7.358       7.399       7.423       0.000       0.000    
   9    0.000       0.000       7.314       7.318       7.322       7.326       7.326       7.322       7.311       7.297    
        7.314       7.328       7.338       7.343       7.347       7.384       7.419       7.449       7.483       7.499    
  10    0.000       0.000       7.328       7.330       7.333       7.336       7.335       7.332       7.325       7.320    
        7.329       7.340       7.349       7.359       7.372       7.399       7.430       7.459       7.485       7.500    

 HEAD WILL BE SAVED ON UNIT   51 AT END OF TIME STEP   28, STRESS PERIOD    2

 DRAWDOWN WILL BE SAVED ON UNIT   52 AT END OF TIME STEP   28, STRESS PERIOD    2
1
  VOLUMETRIC BUDGET FOR ENTIRE MODEL AT END OF TIME STEP   28, STRESS PERIOD   2
  ------------------------------------------------------------------------------

     CUMULATIVE VOLUMES      L**3       RATES FOR THIS TIME STEP      L**3/T
     ------------------                 ------------------------

           IN:                                      IN:
           ---                                      ---
             STORAGE =        1422.5603               STORAGE =          29.2997
       CONSTANT HEAD =           0.0000         CONSTANT HEAD =           0.0000
               WELLS =           0.0000                 WELLS =           0.0000
       RIVER LEAKAGE =      591299.9375         RIVER LEAKAGE =        5184.9014
            RECHARGE =       17222.9336              RECHARGE =         599.7326

            TOTAL IN =      609945.4375              TOTAL IN =        5813.9336

          OUT:                                     OUT:
          ----                                     ----
             STORAGE =      602431.4375               STORAGE =        5560.7510
       CONSTANT HEAD =           0.0000         CONSTANT HEAD =           0.0000
               WELLS =        7290.2285                 WELLS =         254.5907
       RIVER LEAKAGE =         268.8873         RIVER LEAKAGE =           0.0000
            RECHARGE =           0.0000              RECHARGE =           0.0000

           TOTAL OUT =      609990.5625             TOTAL OUT =        5815.3418

            IN - OUT =         -45.1250              IN - OUT =          -1.4082

 PERCENT DISCREPANCY =          -0.01     PERCENT DISCREPANCY =          -0.02






         TIME SUMMARY AT END OF TIME STEP   28 IN STRESS PERIOD    2
                    SECONDS     MINUTES      HOURS       DAYS        YEARS
                    -----------------------------------------------------------
   TIME STEP LENGTH  86400.      1440.0      24.000      1.0000     2.73785E-03
 STRESS PERIOD TIME 2.41920E+06  40320.      672.00      28.000     7.66598E-02
         TOTAL TIME 2.50560E+06  41760.      696.00      29.000     7.93977E-02
1

 SOLVING FOR HEAD 

    ------------------------------------------------
       NWT REQUIRED            3 OUTER ITERATIONS 
       AND A TOTAL OF          3 INNER ITERATIONS.
    ------------------------------------------------

 OUTPUT CONTROL FOR STRESS PERIOD    2   TIME STEP   29
    SAVE HEAD FOR ALL LAYERS
    SAVE DRAWDOWN FOR ALL LAYERS
    SAVE BUDGET
    PRINT HEAD FOR ALL LAYERS
    PRINT BUDGET
1
              HEAD IN LAYER   1 AT END OF TIME STEP  29 IN STRESS PERIOD    2
  ---------------------------------------------------------------------------

            1           2           3           4           5           6           7           8           9          10
           11          12          13          14          15          16          17          18          19          20
 ........................................................................................................................
   1    0.000       0.000       0.000       0.000       0.000       7.201       7.190       7.213       7.231       7.241    
        7.243       7.244       7.342       7.821       7.349       7.266       7.287       7.304       0.000       0.000    
   2    0.000       0.000       0.000       0.000       7.214       7.204       7.151       7.212       7.232       7.241    
        7.243       7.243       7.321       7.824       7.327       7.253       7.285       7.306       0.000       0.000    
   3    0.000       0.000       0.000       0.000       7.231       7.299       7.319       7.314       7.301       7.305    
        7.304       7.294       7.302       7.828       7.297       7.201       7.283       7.314       0.000       0.000    
   4    0.000       0.000       0.000       7.274       7.356       7.821       7.815       7.820       7.827       7.826    
        7.824       7.800       7.403       7.832       7.315       7.272       7.309       7.335       0.000       0.000    
   5    0.000       0.000       7.539       7.702       7.831       7.808       7.383       7.332       7.320       7.320    
        7.362       7.820       7.832       7.801       7.324       7.307       7.339       7.366       7.390       0.000    
   6    0.000       7.835       7.835       7.826       7.629       7.338       7.274       7.271       7.269       7.265    
        7.272       7.328       7.339       7.334       7.303       7.331       7.364       7.386       7.396       0.000    
   7    0.000       7.328       7.335       7.334       7.305       7.286       7.287       7.287       7.279       7.264    
        7.279       7.292       7.299       7.304       7.309       7.349       7.382       7.402       0.000       0.000    
   8    0.000       7.276       7.291       7.298       7.302       7.307       7.309       7.305       7.287       7.224    
        7.288       7.309       7.318       7.315       7.272       7.358       7.399       7.423       0.000       0.000    
   9    0.000       0.000       7.314       7.318       7.322       7.326       7.326       7.322       7.311       7.297    
        7.314       7.328       7.338       7.343       7.347       7.384       7.419       7.449       7.483       7.499    
  10    0.000       0.000       7.328       7.330       7.333       7.336       7.335       7.332       7.325       7.320    
        7.329       7.340       7.350       7.359       7.372       7.399       7.430       7.459       7.485       7.500    

 HEAD WILL BE SAVED ON UNIT   51 AT END OF TIME STEP   29, STRESS PERIOD    2

 DRAWDOWN WILL BE SAVED ON UNIT   52 AT END OF TIME STEP   29, STRESS PERIOD    2
1
  VOLUMETRIC BUDGET FOR ENTIRE MODEL AT END OF TIME STEP   29, STRESS PERIOD   2
  ------------------------------------------------------------------------------

     CUMULATIVE VOLUMES      L**3       RATES FOR THIS TIME STEP      L**3/T
     ------------------                 ------------------------

           IN:                                      IN:
           ---                                      ---
             STORAGE =        1450.8784               STORAGE =          28.3181
       CONSTANT HEAD =           0.0000         CONSTANT HEAD =           0.0000
               WELLS =           0.0000                 WELLS =           0.0000
       RIVER LEAKAGE =      596390.1875         RIVER LEAKAGE =        5090.2563
            RECHARGE =       17822.6660              RECHARGE =         599.7326

            TOTAL IN =      615663.7500              TOTAL IN =        5718.3066

          OUT:                                     OUT:
          ----                                     ----
             STORAGE =      607896.5625               STORAGE =        5465.0986
       CONSTANT HEAD =           0.0000         CONSTANT HEAD =           0.0000
               WELLS =        7544.8193                 WELLS =         254.5907
       RIVER LEAKAGE =         268.8873         RIVER LEAKAGE =           0.0000
            RECHARGE =           0.0000              RECHARGE =           0.0000

           TOTAL OUT =      615710.2500             TOTAL OUT =        5719.6895

            IN - OUT =         -46.5000              IN - OUT =          -1.3828

 PERCENT DISCREPANCY =          -0.01     PERCENT DISCREPANCY =          -0.02






         TIME SUMMARY AT END OF TIME STEP   29 IN STRESS PERIOD    2
                    SECONDS     MINUTES      HOURS       DAYS        YEARS
                    -----------------------------------------------------------
   TIME STEP LENGTH  86400.      1440.0      24.000      1.0000     2.73785E-03
 STRESS PERIOD TIME 2.50560E+06  41760.      696.00      29.000     7.93977E-02
         TOTAL TIME 2.59200E+06  43200.      720.00      30.000     8.21355E-02
1

 SOLVING FOR HEAD 

    ------------------------------------------------
       NWT REQUIRED            3 OUTER ITERATIONS 
       AND A TOTAL OF          3 INNER ITERATIONS.
    ------------------------------------------------

 OUTPUT CONTROL FOR STRESS PERIOD    2   TIME STEP   30
    SAVE HEAD FOR ALL LAYERS
    SAVE DRAWDOWN FOR ALL LAYERS
    SAVE BUDGET
    PRINT HEAD FOR ALL LAYERS
    PRINT BUDGET
1
              HEAD IN LAYER   1 AT END OF TIME STEP  30 IN STRESS PERIOD    2
  ---------------------------------------------------------------------------

            1           2           3           4           5           6           7           8           9          10
           11          12          13          14          15          16          17          18          19          20
 ........................................................................................................................
   1    0.000       0.000       0.000       0.000       0.000       7.201       7.190       7.213       7.231       7.241    
        7.243       7.245       7.346       7.821       7.352       7.266       7.287       7.304       0.000       0.000    
   2    0.000       0.000       0.000       0.000       7.214       7.204       7.151       7.213       7.232       7.241    
        7.244       7.244       7.324       7.824       7.330       7.253       7.285       7.306       0.000       0.000    
   3    0.000       0.000       0.000       0.000       7.232       7.302       7.323       7.318       7.304       7.307    
        7.307       7.297       7.305       7.829       7.300       7.201       7.283       7.314       0.000       0.000    
   4    0.000       0.000       0.000       7.277       7.360       7.822       7.815       7.820       7.827       7.826    
        7.824       7.801       7.409       7.832       7.318       7.273       7.309       7.335       0.000       0.000    
   5    0.000       0.000       7.547       7.707       7.831       7.809       7.388       7.336       7.323       7.323    
        7.366       7.820       7.832       7.802       7.326       7.307       7.339       7.366       7.390       0.000    
   6    0.000       7.835       7.835       7.827       7.635       7.341       7.276       7.272       7.269       7.265    
        7.273       7.331       7.342       7.337       7.304       7.331       7.364       7.386       7.396       0.000    
   7    0.000       7.331       7.338       7.337       7.307       7.287       7.288       7.287       7.279       7.264    
        7.279       7.292       7.300       7.304       7.309       7.349       7.382       7.402       0.000       0.000    
   8    0.000       7.277       7.292       7.298       7.302       7.307       7.309       7.305       7.287       7.224    
        7.288       7.309       7.318       7.315       7.272       7.358       7.399       7.423       0.000       0.000    
   9    0.000       0.000       7.314       7.318       7.322       7.326       7.326       7.322       7.311       7.297    
        7.314       7.328       7.338       7.343       7.347       7.384       7.419       7.449       7.483       7.499    
  10    0.000       0.000       7.328       7.330       7.333       7.336       7.335       7.332       7.325       7.320    
        7.329       7.340       7.350       7.359       7.372       7.399       7.430       7.459       7.485       7.500    

 HEAD WILL BE SAVED ON UNIT   51 AT END OF TIME STEP   30, STRESS PERIOD    2

 DRAWDOWN WILL BE SAVED ON UNIT   52 AT END OF TIME STEP   30, STRESS PERIOD    2
1
  VOLUMETRIC BUDGET FOR ENTIRE MODEL AT END OF TIME STEP   30, STRESS PERIOD   2
  ------------------------------------------------------------------------------

     CUMULATIVE VOLUMES      L**3       RATES FOR THIS TIME STEP      L**3/T
     ------------------                 ------------------------

           IN:                                      IN:
           ---                                      ---
             STORAGE =        1478.6909               STORAGE =          27.8125
       CONSTANT HEAD =           0.0000         CONSTANT HEAD =           0.0000
               WELLS =           0.0000                 WELLS =           0.0000
       RIVER LEAKAGE =      601393.2500         RIVER LEAKAGE =        5003.0562
            RECHARGE =       18422.3984              RECHARGE =         599.7326

            TOTAL IN =      621294.3125              TOTAL IN =        5630.6011

          OUT:                                     OUT:
          ----                                     ----
             STORAGE =      613273.9375               STORAGE =        5377.3691
       CONSTANT HEAD =           0.0000         CONSTANT HEAD =           0.0000
               WELLS =        7799.4102                 WELLS =         254.5907
       RIVER LEAKAGE =         268.8873         RIVER LEAKAGE =           0.0000
            RECHARGE =           0.0000              RECHARGE =           0.0000

           TOTAL OUT =      621342.2500             TOTAL OUT =        5631.9600

            IN - OUT =         -47.9375              IN - OUT =          -1.3589

 PERCENT DISCREPANCY =          -0.01     PERCENT DISCREPANCY =          -0.02






         TIME SUMMARY AT END OF TIME STEP   30 IN STRESS PERIOD    2
                    SECONDS     MINUTES      HOURS       DAYS        YEARS
                    -----------------------------------------------------------
   TIME STEP LENGTH  86400.      1440.0      24.000      1.0000     2.73785E-03
 STRESS PERIOD TIME 2.59200E+06  43200.      720.00      30.000     8.21355E-02
         TOTAL TIME 2.67840E+06  44640.      744.00      31.000     8.48734E-02
1

 SOLVING FOR HEAD 

    ------------------------------------------------
       NWT REQUIRED            3 OUTER ITERATIONS 
       AND A TOTAL OF          3 INNER ITERATIONS.
    ------------------------------------------------

 OUTPUT CONTROL FOR STRESS PERIOD    2   TIME STEP   31
    SAVE HEAD FOR ALL LAYERS
    SAVE DRAWDOWN FOR ALL LAYERS
    SAVE BUDGET
    PRINT HEAD FOR ALL LAYERS
    PRINT BUDGET
1
              HEAD IN LAYER   1 AT END OF TIME STEP  31 IN STRESS PERIOD    2
  ---------------------------------------------------------------------------

            1           2           3           4           5           6           7           8           9          10
           11          12          13          14          15          16          17          18          19          20
 ........................................................................................................................
   1    0.000       0.000       0.000       0.000       0.000       7.201       7.191       7.213       7.231       7.241    
        7.243       7.245       7.349       7.821       7.356       7.267       7.287       7.304       0.000       0.000    
   2    0.000       0.000       0.000       0.000       7.214       7.205       7.152       7.213       7.232       7.242    
        7.244       7.245       7.328       7.825       7.333       7.253       7.285       7.306       0.000       0.000    
   3    0.000       0.000       0.000       0.000       7.233       7.305       7.327       7.321       7.307       7.310    
        7.309       7.300       7.309       7.829       7.302       7.201       7.283       7.314       0.000       0.000    
   4    0.000       0.000       0.000       7.280       7.364       7.822       7.816       7.821       7.827       7.826    
        7.824       7.803       7.415       7.833       7.320       7.273       7.310       7.335       0.000       0.000    
   5    0.000       0.000       7.555       7.713       7.831       7.810       7.393       7.339       7.326       7.325    
        7.370       7.821       7.832       7.803       7.328       7.307       7.339       7.366       7.390       0.000    
   6    0.000       7.835       7.835       7.827       7.641       7.345       7.277       7.273       7.270       7.266    
        7.274       7.333       7.345       7.339       7.304       7.331       7.364       7.386       7.396       0.000    
   7    0.000       7.334       7.341       7.339       7.309       7.287       7.288       7.287       7.279       7.264    
        7.279       7.293       7.300       7.304       7.309       7.349       7.382       7.402       0.000       0.000    
   8    0.000       7.277       7.292       7.299       7.302       7.307       7.309       7.305       7.287       7.223    
        7.288       7.309       7.318       7.315       7.272       7.358       7.399       7.423       0.000       0.000    
   9    0.000       0.000       7.314       7.318       7.322       7.326       7.326       7.322       7.311       7.297    
        7.314       7.328       7.338       7.343       7.347       7.384       7.419       7.449       7.483       7.499    
  10    0.000       0.000       7.328       7.330       7.333       7.336       7.335       7.332       7.325       7.320    
        7.329       7.340       7.350       7.359       7.372       7.399       7.430       7.459       7.485       7.500    

 HEAD WILL BE SAVED ON UNIT   51 AT END OF TIME STEP   31, STRESS PERIOD    2

 DRAWDOWN WILL BE SAVED ON UNIT   52 AT END OF TIME STEP   31, STRESS PERIOD    2
1
  VOLUMETRIC BUDGET FOR ENTIRE MODEL AT END OF TIME STEP   31, STRESS PERIOD   2
  ------------------------------------------------------------------------------

     CUMULATIVE VOLUMES      L**3       RATES FOR THIS TIME STEP      L**3/T
     ------------------                 ------------------------

           IN:                                      IN:
           ---                                      ---
             STORAGE =        1506.1310               STORAGE =          27.4400
       CONSTANT HEAD =           0.0000         CONSTANT HEAD =           0.0000
               WELLS =           0.0000                 WELLS =           0.0000
       RIVER LEAKAGE =      606315.5000         RIVER LEAKAGE =        4922.2329
            RECHARGE =       19022.1309              RECHARGE =         599.7326

            TOTAL IN =      626843.7500              TOTAL IN =        5549.4053

          OUT:                                     OUT:
          ----                                     ----
             STORAGE =      618570.0625               STORAGE =        5296.1514
       CONSTANT HEAD =           0.0000         CONSTANT HEAD =           0.0000
               WELLS =        8054.0010                 WELLS =         254.5907
       RIVER LEAKAGE =         268.8873         RIVER LEAKAGE =           0.0000
            RECHARGE =           0.0000              RECHARGE =           0.0000

           TOTAL OUT =      626892.9375             TOTAL OUT =        5550.7422

            IN - OUT =         -49.1875              IN - OUT =          -1.3369

 PERCENT DISCREPANCY =          -0.01     PERCENT DISCREPANCY =          -0.02






         TIME SUMMARY AT END OF TIME STEP   31 IN STRESS PERIOD    2
                    SECONDS     MINUTES      HOURS       DAYS        YEARS
                    -----------------------------------------------------------
   TIME STEP LENGTH  86400.      1440.0      24.000      1.0000     2.73785E-03
 STRESS PERIOD TIME 2.67840E+06  44640.      744.00      31.000     8.48734E-02
         TOTAL TIME 2.76480E+06  46080.      768.00      32.000     8.76112E-02
1

 SOLVING FOR HEAD 

    ------------------------------------------------
       NWT REQUIRED            3 OUTER ITERATIONS 
       AND A TOTAL OF          3 INNER ITERATIONS.
    ------------------------------------------------

 OUTPUT CONTROL FOR STRESS PERIOD    2   TIME STEP   32
    SAVE HEAD FOR ALL LAYERS
    SAVE DRAWDOWN FOR ALL LAYERS
    SAVE BUDGET
    PRINT HEAD FOR ALL LAYERS
    PRINT BUDGET
1
              HEAD IN LAYER   1 AT END OF TIME STEP  32 IN STRESS PERIOD    2
  ---------------------------------------------------------------------------

            1           2           3           4           5           6           7           8           9          10
           11          12          13          14          15          16          17          18          19          20
 ........................................................................................................................
   1    0.000       0.000       0.000       0.000       0.000       7.201       7.191       7.213       7.231       7.241    
        7.243       7.246       7.353       7.821       7.360       7.267       7.287       7.304       0.000       0.000    
   2    0.000       0.000       0.000       0.000       7.214       7.205       7.152       7.214       7.233       7.242    
        7.244       7.246       7.331       7.825       7.337       7.254       7.285       7.306       0.000       0.000    
   3    0.000       0.000       0.000       0.000       7.234       7.307       7.331       7.325       7.310       7.313    
        7.312       7.302       7.312       7.829       7.305       7.201       7.283       7.314       0.000       0.000    
   4    0.000       0.000       0.000       7.283       7.368       7.822       7.816       7.821       7.827       7.826    
        7.824       7.804       7.421       7.833       7.322       7.273       7.310       7.335       0.000       0.000    
   5    0.000       0.000       7.563       7.718       7.831       7.811       7.398       7.342       7.329       7.328    
        7.374       7.821       7.832       7.804       7.330       7.307       7.339       7.366       7.390       0.000    
   6    0.000       7.835       7.835       7.828       7.647       7.349       7.278       7.273       7.270       7.266    
        7.275       7.335       7.347       7.342       7.305       7.332       7.364       7.386       7.396       0.000    
   7    0.000       7.337       7.343       7.342       7.311       7.288       7.288       7.287       7.279       7.264    
        7.279       7.293       7.301       7.305       7.309       7.349       7.382       7.402       0.000       0.000    
   8    0.000       7.278       7.293       7.299       7.303       7.307       7.309       7.305       7.287       7.223    
        7.288       7.309       7.318       7.315       7.271       7.358       7.399       7.423       0.000       0.000    
   9    0.000       0.000       7.314       7.318       7.322       7.326       7.326       7.322       7.311       7.296    
        7.314       7.328       7.338       7.343       7.347       7.384       7.419       7.449       7.483       7.499    
  10    0.000       0.000       7.328       7.330       7.333       7.336       7.335       7.332       7.325       7.321    
        7.329       7.340       7.350       7.359       7.372       7.399       7.430       7.459       7.485       7.500    

 HEAD WILL BE SAVED ON UNIT   51 AT END OF TIME STEP   32, STRESS PERIOD    2

 DRAWDOWN WILL BE SAVED ON UNIT   52 AT END OF TIME STEP   32, STRESS PERIOD    2
1
  VOLUMETRIC BUDGET FOR ENTIRE MODEL AT END OF TIME STEP   32, STRESS PERIOD   2
  ------------------------------------------------------------------------------

     CUMULATIVE VOLUMES      L**3       RATES FOR THIS TIME STEP      L**3/T
     ------------------                 ------------------------

           IN:                                      IN:
           ---                                      ---
             STORAGE =        1533.1993               STORAGE =          27.0684
       CONSTANT HEAD =           0.0000         CONSTANT HEAD =           0.0000
               WELLS =           0.0000                 WELLS =           0.0000
       RIVER LEAKAGE =      611162.3750         RIVER LEAKAGE =        4846.8906
            RECHARGE =       19621.8633              RECHARGE =         599.7326

            TOTAL IN =      632317.4375              TOTAL IN =        5473.6914

          OUT:                                     OUT:
          ----                                     ----
             STORAGE =      623790.5000               STORAGE =        5220.4175
       CONSTANT HEAD =           0.0000         CONSTANT HEAD =           0.0000
               WELLS =        8308.5918                 WELLS =         254.5907
       RIVER LEAKAGE =         268.8873         RIVER LEAKAGE =           0.0000
            RECHARGE =           0.0000              RECHARGE =           0.0000

           TOTAL OUT =      632367.9375             TOTAL OUT =        5475.0083

            IN - OUT =         -50.5000              IN - OUT =          -1.3169

 PERCENT DISCREPANCY =          -0.01     PERCENT DISCREPANCY =          -0.02






         TIME SUMMARY AT END OF TIME STEP   32 IN STRESS PERIOD    2
                    SECONDS     MINUTES      HOURS       DAYS        YEARS
                    -----------------------------------------------------------
   TIME STEP LENGTH  86400.      1440.0      24.000      1.0000     2.73785E-03
 STRESS PERIOD TIME 2.76480E+06  46080.      768.00      32.000     8.76112E-02
         TOTAL TIME 2.85120E+06  47520.      792.00      33.000     9.03491E-02
1

 SOLVING FOR HEAD 

    ------------------------------------------------
       NWT REQUIRED            3 OUTER ITERATIONS 
       AND A TOTAL OF          3 INNER ITERATIONS.
    ------------------------------------------------

 OUTPUT CONTROL FOR STRESS PERIOD    2   TIME STEP   33
    SAVE HEAD FOR ALL LAYERS
    SAVE DRAWDOWN FOR ALL LAYERS
    SAVE BUDGET
    PRINT HEAD FOR ALL LAYERS
    PRINT BUDGET
1
              HEAD IN LAYER   1 AT END OF TIME STEP  33 IN STRESS PERIOD    2
  ---------------------------------------------------------------------------

            1           2           3           4           5           6           7           8           9          10
           11          12          13          14          15          16          17          18          19          20
 ........................................................................................................................
   1    0.000       0.000       0.000       0.000       0.000       7.201       7.191       7.213       7.231       7.241    
        7.243       7.247       7.357       7.821       7.364       7.268       7.288       7.304       0.000       0.000    
   2    0.000       0.000       0.000       0.000       7.215       7.206       7.153       7.215       7.233       7.243    
        7.245       7.247       7.334       7.825       7.340       7.254       7.285       7.306       0.000       0.000    
   3    0.000       0.000       0.000       0.000       7.235       7.310       7.334       7.328       7.313       7.315    
        7.315       7.305       7.315       7.829       7.307       7.201       7.283       7.314       0.000       0.000    
   4    0.000       0.000       0.000       7.287       7.373       7.822       7.816       7.821       7.827       7.826    
        7.824       7.805       7.426       7.833       7.324       7.274       7.310       7.335       0.000       0.000    
   5    0.000       0.000       7.570       7.722       7.832       7.812       7.402       7.345       7.331       7.331    
        7.378       7.821       7.832       7.805       7.332       7.308       7.339       7.366       7.390       0.000    
   6    0.000       7.836       7.835       7.828       7.652       7.352       7.279       7.274       7.271       7.267    
        7.276       7.338       7.350       7.344       7.306       7.332       7.364       7.386       7.396       0.000    
   7    0.000       7.339       7.346       7.345       7.313       7.289       7.288       7.287       7.279       7.264    
        7.279       7.294       7.301       7.305       7.309       7.349       7.382       7.402       0.000       0.000    
   8    0.000       7.278       7.293       7.300       7.303       7.307       7.309       7.305       7.286       7.223    
        7.288       7.309       7.318       7.315       7.271       7.358       7.399       7.423       0.000       0.000    
   9    0.000       0.000       7.315       7.318       7.322       7.326       7.326       7.322       7.311       7.296    
        7.314       7.328       7.338       7.343       7.347       7.384       7.419       7.449       7.483       7.499    
  10    0.000       0.000       7.328       7.330       7.333       7.336       7.335       7.332       7.325       7.321    
        7.329       7.340       7.350       7.359       7.372       7.399       7.430       7.459       7.485       7.500    

 HEAD WILL BE SAVED ON UNIT   51 AT END OF TIME STEP   33, STRESS PERIOD    2

 DRAWDOWN WILL BE SAVED ON UNIT   52 AT END OF TIME STEP   33, STRESS PERIOD    2
1
  VOLUMETRIC BUDGET FOR ENTIRE MODEL AT END OF TIME STEP   33, STRESS PERIOD   2
  ------------------------------------------------------------------------------

     CUMULATIVE VOLUMES      L**3       RATES FOR THIS TIME STEP      L**3/T
     ------------------                 ------------------------

           IN:                                      IN:
           ---                                      ---
             STORAGE =        1559.8954               STORAGE =          26.6960
       CONSTANT HEAD =           0.0000         CONSTANT HEAD =           0.0000
               WELLS =           0.0000                 WELLS =           0.0000
       RIVER LEAKAGE =      615938.6875         RIVER LEAKAGE =        4776.2993
            RECHARGE =       20221.5957              RECHARGE =         599.7326

            TOTAL IN =      637720.1875              TOTAL IN =        5402.7275

          OUT:                                     OUT:
          ----                                     ----
             STORAGE =      628939.9375               STORAGE =        5149.4351
       CONSTANT HEAD =           0.0000         CONSTANT HEAD =           0.0000
               WELLS =        8563.1826                 WELLS =         254.5907
       RIVER LEAKAGE =         268.8873         RIVER LEAKAGE =           0.0000
            RECHARGE =           0.0000              RECHARGE =           0.0000

           TOTAL OUT =      637772.0000             TOTAL OUT =        5404.0259

            IN - OUT =         -51.8125              IN - OUT =          -1.2983

 PERCENT DISCREPANCY =          -0.01     PERCENT DISCREPANCY =          -0.02






         TIME SUMMARY AT END OF TIME STEP   33 IN STRESS PERIOD    2
                    SECONDS     MINUTES      HOURS       DAYS        YEARS
                    -----------------------------------------------------------
   TIME STEP LENGTH  86400.      1440.0      24.000      1.0000     2.73785E-03
 STRESS PERIOD TIME 2.85120E+06  47520.      792.00      33.000     9.03491E-02
         TOTAL TIME 2.93760E+06  48960.      816.00      34.000     9.30869E-02
1

 SOLVING FOR HEAD 

    ------------------------------------------------
       NWT REQUIRED            3 OUTER ITERATIONS 
       AND A TOTAL OF          3 INNER ITERATIONS.
    ------------------------------------------------

 OUTPUT CONTROL FOR STRESS PERIOD    2   TIME STEP   34
    SAVE HEAD FOR ALL LAYERS
    SAVE DRAWDOWN FOR ALL LAYERS
    SAVE BUDGET
    PRINT HEAD FOR ALL LAYERS
    PRINT BUDGET
1
              HEAD IN LAYER   1 AT END OF TIME STEP  34 IN STRESS PERIOD    2
  ---------------------------------------------------------------------------

            1           2           3           4           5           6           7           8           9          10
           11          12          13          14          15          16          17          18          19          20
 ........................................................................................................................
   1    0.000       0.000       0.000       0.000       0.000       7.201       7.191       7.213       7.231       7.241    
        7.244       7.247       7.360       7.822       7.367       7.269       7.288       7.304       0.000       0.000    
   2    0.000       0.000       0.000       0.000       7.215       7.206       7.153       7.215       7.234       7.243    
        7.245       7.248       7.337       7.825       7.343       7.255       7.285       7.307       0.000       0.000    
   3    0.000       0.000       0.000       0.000       7.237       7.313       7.338       7.331       7.315       7.318    
        7.317       7.308       7.319       7.829       7.310       7.201       7.283       7.314       0.000       0.000    
   4    0.000       0.000       0.000       7.290       7.377       7.822       7.817       7.821       7.828       7.826    
        7.825       7.806       7.432       7.833       7.327       7.274       7.310       7.335       0.000       0.000    
   5    0.000       0.000       7.578       7.727       7.832       7.812       7.407       7.349       7.334       7.334    
        7.382       7.822       7.833       7.806       7.334       7.308       7.339       7.366       7.390       0.000    
   6    0.000       7.836       7.835       7.828       7.657       7.356       7.280       7.274       7.271       7.267    
        7.277       7.340       7.352       7.346       7.306       7.332       7.364       7.386       7.396       0.000    
   7    0.000       7.342       7.349       7.347       7.315       7.290       7.288       7.288       7.279       7.264    
        7.279       7.294       7.302       7.306       7.309       7.349       7.382       7.402       0.000       0.000    
   8    0.000       7.279       7.294       7.300       7.303       7.307       7.309       7.305       7.286       7.223    
        7.288       7.309       7.318       7.315       7.271       7.358       7.399       7.423       0.000       0.000    
   9    0.000       0.000       7.315       7.318       7.322       7.326       7.326       7.322       7.311       7.296    
        7.314       7.329       7.338       7.343       7.347       7.384       7.419       7.449       7.483       7.500    
  10    0.000       0.000       7.328       7.330       7.334       7.336       7.336       7.332       7.325       7.321    
        7.329       7.340       7.350       7.359       7.372       7.399       7.430       7.459       7.485       7.500    

 HEAD WILL BE SAVED ON UNIT   51 AT END OF TIME STEP   34, STRESS PERIOD    2

 DRAWDOWN WILL BE SAVED ON UNIT   52 AT END OF TIME STEP   34, STRESS PERIOD    2
1
  VOLUMETRIC BUDGET FOR ENTIRE MODEL AT END OF TIME STEP   34, STRESS PERIOD   2
  ------------------------------------------------------------------------------

     CUMULATIVE VOLUMES      L**3       RATES FOR THIS TIME STEP      L**3/T
     ------------------                 ------------------------

           IN:                                      IN:
           ---                                      ---
             STORAGE =        1586.2186               STORAGE =          26.3232
       CONSTANT HEAD =           0.0000         CONSTANT HEAD =           0.0000
               WELLS =           0.0000                 WELLS =           0.0000
       RIVER LEAKAGE =      620648.5625         RIVER LEAKAGE =        4709.8569
            RECHARGE =       20821.3281              RECHARGE =         599.7326

            TOTAL IN =      643056.0625              TOTAL IN =        5335.9126

          OUT:                                     OUT:
          ----                                     ----
             STORAGE =      634022.5625               STORAGE =        5082.6025
       CONSTANT HEAD =           0.0000         CONSTANT HEAD =           0.0000
               WELLS =        8817.7734                 WELLS =         254.5907
       RIVER LEAKAGE =         268.8873         RIVER LEAKAGE =           0.0000
            RECHARGE =           0.0000              RECHARGE =           0.0000

           TOTAL OUT =      643109.1875             TOTAL OUT =        5337.1934

            IN - OUT =         -53.1250              IN - OUT =          -1.2808

 PERCENT DISCREPANCY =          -0.01     PERCENT DISCREPANCY =          -0.02






         TIME SUMMARY AT END OF TIME STEP   34 IN STRESS PERIOD    2
                    SECONDS     MINUTES      HOURS       DAYS        YEARS
                    -----------------------------------------------------------
   TIME STEP LENGTH  86400.      1440.0      24.000      1.0000     2.73785E-03
 STRESS PERIOD TIME 2.93760E+06  48960.      816.00      34.000     9.30869E-02
         TOTAL TIME 3.02400E+06  50400.      840.00      35.000     9.58248E-02
1

 SOLVING FOR HEAD 

    ------------------------------------------------
       NWT REQUIRED            3 OUTER ITERATIONS 
       AND A TOTAL OF          3 INNER ITERATIONS.
    ------------------------------------------------

 OUTPUT CONTROL FOR STRESS PERIOD    2   TIME STEP   35
    SAVE HEAD FOR ALL LAYERS
    SAVE DRAWDOWN FOR ALL LAYERS
    SAVE BUDGET
    PRINT HEAD FOR ALL LAYERS
    PRINT BUDGET
1
              HEAD IN LAYER   1 AT END OF TIME STEP  35 IN STRESS PERIOD    2
  ---------------------------------------------------------------------------

            1           2           3           4           5           6           7           8           9          10
           11          12          13          14          15          16          17          18          19          20
 ........................................................................................................................
   1    0.000       0.000       0.000       0.000       0.000       7.201       7.191       7.213       7.231       7.241    
        7.244       7.248       7.364       7.822       7.371       7.269       7.288       7.304       0.000       0.000    
   2    0.000       0.000       0.000       0.000       7.215       7.207       7.154       7.216       7.234       7.244    
        7.246       7.248       7.341       7.825       7.346       7.255       7.285       7.307       0.000       0.000    
   3    0.000       0.000       0.000       0.000       7.238       7.316       7.341       7.334       7.318       7.321    
        7.320       7.311       7.322       7.829       7.312       7.201       7.283       7.314       0.000       0.000    
   4    0.000       0.000       0.000       7.293       7.381       7.823       7.817       7.821       7.828       7.826    
        7.825       7.807       7.437       7.833       7.329       7.274       7.310       7.335       0.000       0.000    
   5    0.000       0.000       7.585       7.731       7.832       7.813       7.411       7.352       7.337       7.337    
        7.386       7.822       7.833       7.806       7.336       7.308       7.339       7.366       7.390       0.000    
   6    0.000       7.836       7.835       7.828       7.662       7.359       7.282       7.275       7.272       7.268    
        7.278       7.343       7.355       7.349       7.307       7.332       7.364       7.386       7.396       0.000    
   7    0.000       7.345       7.351       7.350       7.318       7.290       7.288       7.288       7.279       7.264    
        7.280       7.295       7.302       7.306       7.309       7.349       7.382       7.402       0.000       0.000    
   8    0.000       7.279       7.294       7.301       7.303       7.307       7.309       7.305       7.286       7.222    
        7.288       7.309       7.318       7.315       7.270       7.358       7.399       7.423       0.000       0.000    
   9    0.000       0.000       7.315       7.318       7.322       7.326       7.326       7.322       7.311       7.296    
        7.314       7.329       7.338       7.343       7.347       7.384       7.419       7.449       7.483       7.500    
  10    0.000       0.000       7.328       7.330       7.334       7.336       7.336       7.332       7.325       7.321    
        7.329       7.340       7.350       7.359       7.372       7.399       7.430       7.459       7.485       7.500    

 HEAD WILL BE SAVED ON UNIT   51 AT END OF TIME STEP   35, STRESS PERIOD    2

 DRAWDOWN WILL BE SAVED ON UNIT   52 AT END OF TIME STEP   35, STRESS PERIOD    2
1
  VOLUMETRIC BUDGET FOR ENTIRE MODEL AT END OF TIME STEP   35, STRESS PERIOD   2
  ------------------------------------------------------------------------------

     CUMULATIVE VOLUMES      L**3       RATES FOR THIS TIME STEP      L**3/T
     ------------------                 ------------------------

           IN:                                      IN:
           ---                                      ---
             STORAGE =        1612.1691               STORAGE =          25.9505
       CONSTANT HEAD =           0.0000         CONSTANT HEAD =           0.0000
               WELLS =           0.0000                 WELLS =           0.0000
       RIVER LEAKAGE =      625295.6250         RIVER LEAKAGE =        4647.0791
            RECHARGE =       21421.0605              RECHARGE =         599.7326

            TOTAL IN =      648328.8750              TOTAL IN =        5272.7622

          OUT:                                     OUT:
          ----                                     ----
             STORAGE =      639042.0000               STORAGE =        5019.4351
       CONSTANT HEAD =           0.0000         CONSTANT HEAD =           0.0000
               WELLS =        9072.3643                 WELLS =         254.5907
       RIVER LEAKAGE =         268.8873         RIVER LEAKAGE =           0.0000
            RECHARGE =           0.0000              RECHARGE =           0.0000

           TOTAL OUT =      648383.2500             TOTAL OUT =        5274.0259

            IN - OUT =         -54.3750              IN - OUT =          -1.2637

 PERCENT DISCREPANCY =          -0.01     PERCENT DISCREPANCY =          -0.02






         TIME SUMMARY AT END OF TIME STEP   35 IN STRESS PERIOD    2
                    SECONDS     MINUTES      HOURS       DAYS        YEARS
                    -----------------------------------------------------------
   TIME STEP LENGTH  86400.      1440.0      24.000      1.0000     2.73785E-03
 STRESS PERIOD TIME 3.02400E+06  50400.      840.00      35.000     9.58248E-02
         TOTAL TIME 3.11040E+06  51840.      864.00      36.000     9.85626E-02
1

 SOLVING FOR HEAD 

    ------------------------------------------------
       NWT REQUIRED            3 OUTER ITERATIONS 
       AND A TOTAL OF          3 INNER ITERATIONS.
    ------------------------------------------------

 OUTPUT CONTROL FOR STRESS PERIOD    2   TIME STEP   36
    SAVE HEAD FOR ALL LAYERS
    SAVE DRAWDOWN FOR ALL LAYERS
    SAVE BUDGET
    PRINT HEAD FOR ALL LAYERS
    PRINT BUDGET
1
              HEAD IN LAYER   1 AT END OF TIME STEP  36 IN STRESS PERIOD    2
  ---------------------------------------------------------------------------

            1           2           3           4           5           6           7           8           9          10
           11          12          13          14          15          16          17          18          19          20
 ........................................................................................................................
   1    0.000       0.000       0.000       0.000       0.000       7.202       7.191       7.214       7.231       7.241    
        7.244       7.249       7.367       7.822       7.374       7.270       7.288       7.304       0.000       0.000    
   2    0.000       0.000       0.000       0.000       7.215       7.207       7.155       7.217       7.235       7.244    
        7.247       7.249       7.344       7.825       7.349       7.256       7.285       7.307       0.000       0.000    
   3    0.000       0.000       0.000       0.000       7.239       7.319       7.344       7.337       7.321       7.323    
        7.322       7.313       7.325       7.829       7.314       7.201       7.283       7.314       0.000       0.000    
   4    0.000       0.000       0.000       7.296       7.385       7.823       7.817       7.822       7.828       7.827    
        7.825       7.807       7.443       7.833       7.331       7.274       7.310       7.335       0.000       0.000    
   5    0.000       0.000       7.592       7.735       7.832       7.813       7.416       7.355       7.339       7.340    
        7.390       7.822       7.833       7.807       7.338       7.309       7.339       7.366       7.390       0.000    
   6    0.000       7.836       7.835       7.829       7.667       7.363       7.283       7.276       7.272       7.268    
        7.279       7.345       7.357       7.351       7.307       7.332       7.364       7.386       7.396       0.000    
   7    0.000       7.347       7.354       7.352       7.320       7.291       7.289       7.288       7.279       7.264    
        7.280       7.295       7.303       7.306       7.309       7.349       7.382       7.402       0.000       0.000    
   8    0.000       7.280       7.295       7.301       7.304       7.307       7.309       7.305       7.286       7.222    
        7.288       7.310       7.318       7.315       7.270       7.358       7.399       7.423       0.000       0.000    
   9    0.000       0.000       7.315       7.318       7.322       7.326       7.326       7.322       7.311       7.296    
        7.314       7.329       7.338       7.343       7.347       7.384       7.419       7.449       7.483       7.500    
  10    0.000       0.000       7.328       7.331       7.334       7.336       7.336       7.332       7.325       7.321    
        7.329       7.340       7.350       7.359       7.372       7.399       7.430       7.459       7.485       7.500    

 HEAD WILL BE SAVED ON UNIT   51 AT END OF TIME STEP   36, STRESS PERIOD    2

 DRAWDOWN WILL BE SAVED ON UNIT   52 AT END OF TIME STEP   36, STRESS PERIOD    2
1
  VOLUMETRIC BUDGET FOR ENTIRE MODEL AT END OF TIME STEP   36, STRESS PERIOD   2
  ------------------------------------------------------------------------------

     CUMULATIVE VOLUMES      L**3       RATES FOR THIS TIME STEP      L**3/T
     ------------------                 ------------------------

           IN:                                      IN:
           ---                                      ---
             STORAGE =        1637.7469               STORAGE =          25.5778
       CONSTANT HEAD =           0.0000         CONSTANT HEAD =           0.0000
               WELLS =           0.0000                 WELLS =           0.0000
       RIVER LEAKAGE =      629883.1875         RIVER LEAKAGE =        4587.5474
            RECHARGE =       22020.7930              RECHARGE =         599.7326

            TOTAL IN =      653541.7500              TOTAL IN =        5212.8574

          OUT:                                     OUT:
          ----                                     ----
             STORAGE =      644001.5000               STORAGE =        4959.5146
       CONSTANT HEAD =           0.0000         CONSTANT HEAD =           0.0000
               WELLS =        9326.9551                 WELLS =         254.5907
       RIVER LEAKAGE =         268.8873         RIVER LEAKAGE =           0.0000
            RECHARGE =           0.0000              RECHARGE =           0.0000

           TOTAL OUT =      653597.3125             TOTAL OUT =        5214.1055

            IN - OUT =         -55.5625              IN - OUT =          -1.2480

 PERCENT DISCREPANCY =          -0.01     PERCENT DISCREPANCY =          -0.02






         TIME SUMMARY AT END OF TIME STEP   36 IN STRESS PERIOD    2
                    SECONDS     MINUTES      HOURS       DAYS        YEARS
                    -----------------------------------------------------------
   TIME STEP LENGTH  86400.      1440.0      24.000      1.0000     2.73785E-03
 STRESS PERIOD TIME 3.11040E+06  51840.      864.00      36.000     9.85626E-02
         TOTAL TIME 3.19680E+06  53280.      888.00      37.000     0.10130    
1

 SOLVING FOR HEAD 

    ------------------------------------------------
       NWT REQUIRED            3 OUTER ITERATIONS 
       AND A TOTAL OF          3 INNER ITERATIONS.
    ------------------------------------------------

 OUTPUT CONTROL FOR STRESS PERIOD    2   TIME STEP   37
    SAVE HEAD FOR ALL LAYERS
    SAVE DRAWDOWN FOR ALL LAYERS
    SAVE BUDGET
    PRINT HEAD FOR ALL LAYERS
    PRINT BUDGET
1
              HEAD IN LAYER   1 AT END OF TIME STEP  37 IN STRESS PERIOD    2
  ---------------------------------------------------------------------------

            1           2           3           4           5           6           7           8           9          10
           11          12          13          14          15          16          17          18          19          20
 ........................................................................................................................
   1    0.000       0.000       0.000       0.000       0.000       7.202       7.191       7.214       7.231       7.241    
        7.244       7.249       7.371       7.822       7.378       7.270       7.288       7.304       0.000       0.000    
   2    0.000       0.000       0.000       0.000       7.215       7.208       7.155       7.218       7.236       7.245    
        7.247       7.250       7.347       7.825       7.352       7.256       7.285       7.307       0.000       0.000    
   3    0.000       0.000       0.000       0.000       7.240       7.322       7.348       7.341       7.323       7.326    
        7.325       7.316       7.329       7.829       7.317       7.202       7.283       7.314       0.000       0.000    
   4    0.000       0.000       0.000       7.299       7.388       7.823       7.817       7.822       7.828       7.827    
        7.825       7.808       7.448       7.833       7.333       7.275       7.310       7.335       0.000       0.000    
   5    0.000       0.000       7.598       7.738       7.833       7.814       7.420       7.358       7.342       7.342    
        7.394       7.822       7.833       7.808       7.340       7.309       7.339       7.366       7.390       0.000    
   6    0.000       7.836       7.836       7.829       7.671       7.366       7.284       7.276       7.273       7.269    
        7.280       7.347       7.360       7.353       7.308       7.332       7.364       7.386       7.396       0.000    
   7    0.000       7.350       7.356       7.355       7.322       7.292       7.289       7.288       7.279       7.265    
        7.280       7.295       7.303       7.307       7.309       7.349       7.382       7.403       0.000       0.000    
   8    0.000       7.281       7.295       7.302       7.304       7.307       7.310       7.305       7.286       7.222    
        7.288       7.310       7.318       7.315       7.270       7.358       7.399       7.424       0.000       0.000    
   9    0.000       0.000       7.315       7.318       7.322       7.326       7.326       7.322       7.311       7.296    
        7.314       7.329       7.338       7.343       7.347       7.384       7.419       7.449       7.483       7.500    
  10    0.000       0.000       7.328       7.331       7.334       7.336       7.336       7.332       7.325       7.321    
        7.329       7.340       7.350       7.359       7.372       7.399       7.430       7.459       7.485       7.500    

 HEAD WILL BE SAVED ON UNIT   51 AT END OF TIME STEP   37, STRESS PERIOD    2

 DRAWDOWN WILL BE SAVED ON UNIT   52 AT END OF TIME STEP   37, STRESS PERIOD    2
1
  VOLUMETRIC BUDGET FOR ENTIRE MODEL AT END OF TIME STEP   37, STRESS PERIOD   2
  ------------------------------------------------------------------------------

     CUMULATIVE VOLUMES      L**3       RATES FOR THIS TIME STEP      L**3/T
     ------------------                 ------------------------

           IN:                                      IN:
           ---                                      ---
             STORAGE =        1662.9519               STORAGE =          25.2050
       CONSTANT HEAD =           0.0000         CONSTANT HEAD =           0.0000
               WELLS =           0.0000                 WELLS =           0.0000
       RIVER LEAKAGE =      634414.0625         RIVER LEAKAGE =        4530.8862
            RECHARGE =       22620.5254              RECHARGE =         599.7326

            TOTAL IN =      658697.5000              TOTAL IN =        5155.8237

          OUT:                                     OUT:
          ----                                     ----
             STORAGE =      648903.9375               STORAGE =        4902.4658
       CONSTANT HEAD =           0.0000         CONSTANT HEAD =           0.0000
               WELLS =        9581.5459                 WELLS =         254.5907
       RIVER LEAKAGE =         268.8873         RIVER LEAKAGE =           0.0000
            RECHARGE =           0.0000              RECHARGE =           0.0000

           TOTAL OUT =      658754.3750             TOTAL OUT =        5157.0566

            IN - OUT =         -56.8750              IN - OUT =          -1.2329

 PERCENT DISCREPANCY =          -0.01     PERCENT DISCREPANCY =          -0.02






         TIME SUMMARY AT END OF TIME STEP   37 IN STRESS PERIOD    2
                    SECONDS     MINUTES      HOURS       DAYS        YEARS
                    -----------------------------------------------------------
   TIME STEP LENGTH  86400.      1440.0      24.000      1.0000     2.73785E-03
 STRESS PERIOD TIME 3.19680E+06  53280.      888.00      37.000     0.10130    
         TOTAL TIME 3.28320E+06  54720.      912.00      38.000     0.10404    
1

 SOLVING FOR HEAD 

    ------------------------------------------------
       NWT REQUIRED            3 OUTER ITERATIONS 
       AND A TOTAL OF          3 INNER ITERATIONS.
    ------------------------------------------------

 OUTPUT CONTROL FOR STRESS PERIOD    2   TIME STEP   38
    SAVE HEAD FOR ALL LAYERS
    SAVE DRAWDOWN FOR ALL LAYERS
    SAVE BUDGET
    PRINT HEAD FOR ALL LAYERS
    PRINT BUDGET
1
              HEAD IN LAYER   1 AT END OF TIME STEP  38 IN STRESS PERIOD    2
  ---------------------------------------------------------------------------

            1           2           3           4           5           6           7           8           9          10
           11          12          13          14          15          16          17          18          19          20
 ........................................................................................................................
   1    0.000       0.000       0.000       0.000       0.000       7.202       7.191       7.214       7.232       7.241    
        7.244       7.250       7.374       7.822       7.381       7.271       7.288       7.305       0.000       0.000    
   2    0.000       0.000       0.000       0.000       7.216       7.208       7.156       7.218       7.236       7.245    
        7.248       7.251       7.350       7.826       7.355       7.257       7.285       7.307       0.000       0.000    
   3    0.000       0.000       0.000       0.000       7.242       7.324       7.351       7.344       7.326       7.328    
        7.327       7.319       7.332       7.829       7.319       7.202       7.284       7.314       0.000       0.000    
   4    0.000       0.000       0.000       7.302       7.392       7.823       7.817       7.822       7.828       7.827    
        7.825       7.809       7.453       7.833       7.336       7.275       7.310       7.335       0.000       0.000    
   5    0.000       0.000       7.605       7.742       7.833       7.814       7.424       7.361       7.345       7.345    
        7.398       7.822       7.833       7.808       7.342       7.309       7.339       7.366       7.390       0.000    
   6    0.000       7.836       7.836       7.829       7.676       7.370       7.286       7.277       7.274       7.270    
        7.281       7.350       7.362       7.356       7.309       7.332       7.364       7.386       7.396       0.000    
   7    0.000       7.353       7.359       7.357       7.324       7.293       7.289       7.288       7.280       7.265    
        7.280       7.296       7.304       7.307       7.309       7.349       7.382       7.403       0.000       0.000    
   8    0.000       7.281       7.296       7.302       7.304       7.307       7.310       7.305       7.286       7.221    
        7.288       7.310       7.318       7.315       7.270       7.358       7.399       7.424       0.000       0.000    
   9    0.000       0.000       7.315       7.318       7.323       7.326       7.326       7.322       7.311       7.296    
        7.314       7.329       7.338       7.343       7.347       7.384       7.419       7.449       7.483       7.500    
  10    0.000       0.000       7.328       7.331       7.334       7.336       7.336       7.332       7.325       7.321    
        7.329       7.340       7.350       7.359       7.372       7.400       7.430       7.459       7.485       7.500    

 HEAD WILL BE SAVED ON UNIT   51 AT END OF TIME STEP   38, STRESS PERIOD    2

 DRAWDOWN WILL BE SAVED ON UNIT   52 AT END OF TIME STEP   38, STRESS PERIOD    2
1
  VOLUMETRIC BUDGET FOR ENTIRE MODEL AT END OF TIME STEP   38, STRESS PERIOD   2
  ------------------------------------------------------------------------------

     CUMULATIVE VOLUMES      L**3       RATES FOR THIS TIME STEP      L**3/T
     ------------------                 ------------------------

           IN:                                      IN:
           ---                                      ---
             STORAGE =        1687.7839               STORAGE =          24.8320
       CONSTANT HEAD =           0.0000         CONSTANT HEAD =           0.0000
               WELLS =           0.0000                 WELLS =           0.0000
       RIVER LEAKAGE =      638890.8750         RIVER LEAKAGE =        4476.8218
            RECHARGE =       23220.2578              RECHARGE =         599.7326

            TOTAL IN =      663798.9375              TOTAL IN =        5101.3862

          OUT:                                     OUT:
          ----                                     ----
             STORAGE =      653751.9375               STORAGE =        4848.0146
       CONSTANT HEAD =           0.0000         CONSTANT HEAD =           0.0000
               WELLS =        9836.1367                 WELLS =         254.5907
       RIVER LEAKAGE =         268.8873         RIVER LEAKAGE =           0.0000
            RECHARGE =           0.0000              RECHARGE =           0.0000

           TOTAL OUT =      663856.9375             TOTAL OUT =        5102.6055

            IN - OUT =         -58.0000              IN - OUT =          -1.2192

 PERCENT DISCREPANCY =          -0.01     PERCENT DISCREPANCY =          -0.02






         TIME SUMMARY AT END OF TIME STEP   38 IN STRESS PERIOD    2
                    SECONDS     MINUTES      HOURS       DAYS        YEARS
                    -----------------------------------------------------------
   TIME STEP LENGTH  86400.      1440.0      24.000      1.0000     2.73785E-03
 STRESS PERIOD TIME 3.28320E+06  54720.      912.00      38.000     0.10404    
         TOTAL TIME 3.36960E+06  56160.      936.00      39.000     0.10678    
1

 SOLVING FOR HEAD 

    ------------------------------------------------
       NWT REQUIRED            3 OUTER ITERATIONS 
       AND A TOTAL OF          3 INNER ITERATIONS.
    ------------------------------------------------

 OUTPUT CONTROL FOR STRESS PERIOD    2   TIME STEP   39
    SAVE HEAD FOR ALL LAYERS
    SAVE DRAWDOWN FOR ALL LAYERS
    SAVE BUDGET
    PRINT HEAD FOR ALL LAYERS
    PRINT BUDGET
1
              HEAD IN LAYER   1 AT END OF TIME STEP  39 IN STRESS PERIOD    2
  ---------------------------------------------------------------------------

            1           2           3           4           5           6           7           8           9          10
           11          12          13          14          15          16          17          18          19          20
 ........................................................................................................................
   1    0.000       0.000       0.000       0.000       0.000       7.202       7.191       7.214       7.232       7.241    
        7.244       7.251       7.378       7.822       7.384       7.272       7.288       7.305       0.000       0.000    
   2    0.000       0.000       0.000       0.000       7.216       7.209       7.156       7.219       7.237       7.246    
        7.248       7.252       7.353       7.826       7.358       7.257       7.285       7.307       0.000       0.000    
   3    0.000       0.000       0.000       0.000       7.243       7.327       7.354       7.347       7.329       7.331    
        7.330       7.321       7.335       7.829       7.321       7.202       7.284       7.314       0.000       0.000    
   4    0.000       0.000       0.000       7.306       7.396       7.823       7.818       7.822       7.828       7.827    
        7.825       7.809       7.458       7.833       7.338       7.275       7.310       7.335       0.000       0.000    
   5    0.000       0.000       7.611       7.745       7.833       7.815       7.429       7.364       7.347       7.348    
        7.401       7.823       7.833       7.809       7.344       7.310       7.339       7.366       7.390       0.000    
   6    0.000       7.836       7.836       7.829       7.680       7.373       7.287       7.278       7.274       7.270    
        7.282       7.352       7.364       7.358       7.309       7.332       7.364       7.386       7.396       0.000    
   7    0.000       7.355       7.361       7.359       7.326       7.293       7.289       7.288       7.280       7.265    
        7.280       7.296       7.304       7.308       7.309       7.349       7.382       7.403       0.000       0.000    
   8    0.000       7.282       7.296       7.303       7.305       7.308       7.310       7.305       7.286       7.221    
        7.288       7.310       7.318       7.315       7.269       7.358       7.399       7.424       0.000       0.000    
   9    0.000       0.000       7.315       7.319       7.323       7.326       7.326       7.322       7.311       7.296    
        7.314       7.329       7.338       7.343       7.347       7.384       7.419       7.449       7.483       7.500    
  10    0.000       0.000       7.328       7.331       7.334       7.336       7.336       7.332       7.325       7.321    
        7.329       7.340       7.350       7.359       7.372       7.400       7.430       7.459       7.485       7.500    

 HEAD WILL BE SAVED ON UNIT   51 AT END OF TIME STEP   39, STRESS PERIOD    2

 DRAWDOWN WILL BE SAVED ON UNIT   52 AT END OF TIME STEP   39, STRESS PERIOD    2
1
  VOLUMETRIC BUDGET FOR ENTIRE MODEL AT END OF TIME STEP   39, STRESS PERIOD   2
  ------------------------------------------------------------------------------

     CUMULATIVE VOLUMES      L**3       RATES FOR THIS TIME STEP      L**3/T
     ------------------                 ------------------------

           IN:                                      IN:
           ---                                      ---
             STORAGE =        1712.2428               STORAGE =          24.4589
       CONSTANT HEAD =           0.0000         CONSTANT HEAD =           0.0000
               WELLS =           0.0000                 WELLS =           0.0000
       RIVER LEAKAGE =      643315.9375         RIVER LEAKAGE =        4425.0889
            RECHARGE =       23819.9902              RECHARGE =         599.7326

            TOTAL IN =      668848.1875              TOTAL IN =        5049.2803

          OUT:                                     OUT:
          ----                                     ----
             STORAGE =      658547.8125               STORAGE =        4795.8945
       CONSTANT HEAD =           0.0000         CONSTANT HEAD =           0.0000
               WELLS =       10090.7275                 WELLS =         254.5907
       RIVER LEAKAGE =         268.8873         RIVER LEAKAGE =           0.0000
            RECHARGE =           0.0000              RECHARGE =           0.0000

           TOTAL OUT =      668907.4375             TOTAL OUT =        5050.4854

            IN - OUT =         -59.2500              IN - OUT =          -1.2051

 PERCENT DISCREPANCY =          -0.01     PERCENT DISCREPANCY =          -0.02






         TIME SUMMARY AT END OF TIME STEP   39 IN STRESS PERIOD    2
                    SECONDS     MINUTES      HOURS       DAYS        YEARS
                    -----------------------------------------------------------
   TIME STEP LENGTH  86400.      1440.0      24.000      1.0000     2.73785E-03
 STRESS PERIOD TIME 3.36960E+06  56160.      936.00      39.000     0.10678    
         TOTAL TIME 3.45600E+06  57600.      960.00      40.000     0.10951    
1

 SOLVING FOR HEAD 

    ------------------------------------------------
       NWT REQUIRED            3 OUTER ITERATIONS 
       AND A TOTAL OF          3 INNER ITERATIONS.
    ------------------------------------------------

 OUTPUT CONTROL FOR STRESS PERIOD    2   TIME STEP   40
    SAVE HEAD FOR ALL LAYERS
    SAVE DRAWDOWN FOR ALL LAYERS
    SAVE BUDGET
    PRINT HEAD FOR ALL LAYERS
    PRINT BUDGET
1
              HEAD IN LAYER   1 AT END OF TIME STEP  40 IN STRESS PERIOD    2
  ---------------------------------------------------------------------------

            1           2           3           4           5           6           7           8           9          10
           11          12          13          14          15          16          17          18          19          20
 ........................................................................................................................
   1    0.000       0.000       0.000       0.000       0.000       7.202       7.191       7.214       7.232       7.242    
        7.244       7.251       7.381       7.823       7.388       7.272       7.288       7.305       0.000       0.000    
   2    0.000       0.000       0.000       0.000       7.216       7.210       7.157       7.220       7.237       7.246    
        7.249       7.253       7.356       7.826       7.361       7.258       7.285       7.307       0.000       0.000    
   3    0.000       0.000       0.000       0.000       7.244       7.330       7.357       7.350       7.331       7.333    
        7.332       7.324       7.338       7.829       7.324       7.202       7.284       7.314       0.000       0.000    
   4    0.000       0.000       0.000       7.309       7.400       7.823       7.818       7.822       7.828       7.827    
        7.826       7.810       7.463       7.834       7.340       7.276       7.310       7.335       0.000       0.000    
   5    0.000       0.000       7.618       7.748       7.833       7.815       7.433       7.367       7.350       7.350    
        7.405       7.823       7.833       7.809       7.346       7.310       7.339       7.366       7.390       0.000    
   6    0.000       7.836       7.836       7.830       7.683       7.376       7.288       7.278       7.275       7.271    
        7.283       7.354       7.367       7.360       7.310       7.332       7.364       7.386       7.396       0.000    
   7    0.000       7.358       7.364       7.362       7.328       7.294       7.289       7.288       7.280       7.265    
        7.280       7.297       7.305       7.308       7.309       7.349       7.382       7.403       0.000       0.000    
   8    0.000       7.282       7.297       7.303       7.305       7.308       7.310       7.305       7.286       7.221    
        7.288       7.310       7.318       7.315       7.269       7.358       7.399       7.424       0.000       0.000    
   9    0.000       0.000       7.315       7.319       7.323       7.326       7.327       7.322       7.311       7.296    
        7.314       7.329       7.338       7.343       7.347       7.384       7.419       7.449       7.483       7.500    
  10    0.000       0.000       7.328       7.331       7.334       7.336       7.336       7.332       7.325       7.321    
        7.329       7.340       7.350       7.359       7.372       7.400       7.430       7.459       7.485       7.500    

 HEAD WILL BE SAVED ON UNIT   51 AT END OF TIME STEP   40, STRESS PERIOD    2

 DRAWDOWN WILL BE SAVED ON UNIT   52 AT END OF TIME STEP   40, STRESS PERIOD    2
1
  VOLUMETRIC BUDGET FOR ENTIRE MODEL AT END OF TIME STEP   40, STRESS PERIOD   2
  ------------------------------------------------------------------------------

     CUMULATIVE VOLUMES      L**3       RATES FOR THIS TIME STEP      L**3/T
     ------------------                 ------------------------

           IN:                                      IN:
           ---                                      ---
             STORAGE =        1736.3282               STORAGE =          24.0854
       CONSTANT HEAD =           0.0000         CONSTANT HEAD =           0.0000
               WELLS =           0.0000                 WELLS =           0.0000
       RIVER LEAKAGE =      647691.4375         RIVER LEAKAGE =        4375.4692
            RECHARGE =       24419.7227              RECHARGE =         599.7326

            TOTAL IN =      673847.5000              TOTAL IN =        4999.2871

          OUT:                                     OUT:
          ----                                     ----
             STORAGE =      663293.6875               STORAGE =        4745.8887
       CONSTANT HEAD =           0.0000         CONSTANT HEAD =           0.0000
               WELLS =       10345.3184                 WELLS =         254.5907
       RIVER LEAKAGE =         268.8873         RIVER LEAKAGE =           0.0000
            RECHARGE =           0.0000              RECHARGE =           0.0000

           TOTAL OUT =      673907.8750             TOTAL OUT =        5000.4795

            IN - OUT =         -60.3750              IN - OUT =          -1.1924

 PERCENT DISCREPANCY =          -0.01     PERCENT DISCREPANCY =          -0.02






         TIME SUMMARY AT END OF TIME STEP   40 IN STRESS PERIOD    2
                    SECONDS     MINUTES      HOURS       DAYS        YEARS
                    -----------------------------------------------------------
   TIME STEP LENGTH  86400.      1440.0      24.000      1.0000     2.73785E-03
 STRESS PERIOD TIME 3.45600E+06  57600.      960.00      40.000     0.10951    
         TOTAL TIME 3.54240E+06  59040.      984.00      41.000     0.11225    
1

 SOLVING FOR HEAD 

    ------------------------------------------------
       NWT REQUIRED            3 OUTER ITERATIONS 
       AND A TOTAL OF          3 INNER ITERATIONS.
    ------------------------------------------------

 OUTPUT CONTROL FOR STRESS PERIOD    2   TIME STEP   41
    SAVE HEAD FOR ALL LAYERS
    SAVE DRAWDOWN FOR ALL LAYERS
    SAVE BUDGET
    PRINT HEAD FOR ALL LAYERS
    PRINT BUDGET
1
              HEAD IN LAYER   1 AT END OF TIME STEP  41 IN STRESS PERIOD    2
  ---------------------------------------------------------------------------

            1           2           3           4           5           6           7           8           9          10
           11          12          13          14          15          16          17          18          19          20
 ........................................................................................................................
   1    0.000       0.000       0.000       0.000       0.000       7.202       7.191       7.214       7.232       7.242    
        7.245       7.252       7.384       7.823       7.391       7.273       7.288       7.305       0.000       0.000    
   2    0.000       0.000       0.000       0.000       7.216       7.210       7.158       7.220       7.238       7.247    
        7.249       7.254       7.359       7.826       7.364       7.258       7.286       7.307       0.000       0.000    
   3    0.000       0.000       0.000       0.000       7.246       7.332       7.361       7.353       7.334       7.336    
        7.335       7.327       7.342       7.830       7.326       7.202       7.284       7.315       0.000       0.000    
   4    0.000       0.000       0.000       7.312       7.403       7.824       7.818       7.822       7.828       7.827    
        7.826       7.810       7.468       7.834       7.342       7.276       7.310       7.335       0.000       0.000    
   5    0.000       0.000       7.624       7.751       7.833       7.816       7.437       7.370       7.352       7.353    
        7.409       7.823       7.833       7.809       7.348       7.310       7.339       7.366       7.390       0.000    
   6    0.000       7.836       7.836       7.830       7.687       7.380       7.290       7.279       7.275       7.271    
        7.284       7.356       7.369       7.362       7.311       7.332       7.364       7.386       7.396       0.000    
   7    0.000       7.360       7.366       7.364       7.330       7.295       7.290       7.288       7.280       7.265    
        7.280       7.297       7.305       7.309       7.309       7.349       7.382       7.403       0.000       0.000    
   8    0.000       7.283       7.298       7.304       7.305       7.308       7.310       7.305       7.286       7.221    
        7.288       7.310       7.318       7.315       7.269       7.358       7.399       7.424       0.000       0.000    
   9    0.000       0.000       7.315       7.319       7.323       7.326       7.327       7.322       7.311       7.296    
        7.314       7.329       7.338       7.343       7.347       7.384       7.419       7.449       7.483       7.500    
  10    0.000       0.000       7.328       7.331       7.334       7.336       7.336       7.332       7.325       7.321    
        7.329       7.340       7.350       7.359       7.372       7.400       7.430       7.459       7.485       7.500    

 HEAD WILL BE SAVED ON UNIT   51 AT END OF TIME STEP   41, STRESS PERIOD    2

 DRAWDOWN WILL BE SAVED ON UNIT   52 AT END OF TIME STEP   41, STRESS PERIOD    2
1
  VOLUMETRIC BUDGET FOR ENTIRE MODEL AT END OF TIME STEP   41, STRESS PERIOD   2
  ------------------------------------------------------------------------------

     CUMULATIVE VOLUMES      L**3       RATES FOR THIS TIME STEP      L**3/T
     ------------------                 ------------------------

           IN:                                      IN:
           ---                                      ---
             STORAGE =        1760.0403               STORAGE =          23.7121
       CONSTANT HEAD =           0.0000         CONSTANT HEAD =           0.0000
               WELLS =           0.0000                 WELLS =           0.0000
       RIVER LEAKAGE =      652019.2500         RIVER LEAKAGE =        4327.7822
            RECHARGE =       25019.4551              RECHARGE =         599.7326

            TOTAL IN =      678798.7500              TOTAL IN =        4951.2266

          OUT:                                     OUT:
          ----                                     ----
             STORAGE =      667991.5000               STORAGE =        4697.8159
       CONSTANT HEAD =           0.0000         CONSTANT HEAD =           0.0000
               WELLS =       10599.9092                 WELLS =         254.5907
       RIVER LEAKAGE =         268.8873         RIVER LEAKAGE =           0.0000
            RECHARGE =           0.0000              RECHARGE =           0.0000

           TOTAL OUT =      678860.3125             TOTAL OUT =        4952.4067

            IN - OUT =         -61.5625              IN - OUT =          -1.1802

 PERCENT DISCREPANCY =          -0.01     PERCENT DISCREPANCY =          -0.02






         TIME SUMMARY AT END OF TIME STEP   41 IN STRESS PERIOD    2
                    SECONDS     MINUTES      HOURS       DAYS        YEARS
                    -----------------------------------------------------------
   TIME STEP LENGTH  86400.      1440.0      24.000      1.0000     2.73785E-03
 STRESS PERIOD TIME 3.54240E+06  59040.      984.00      41.000     0.11225    
         TOTAL TIME 3.62880E+06  60480.      1008.0      42.000     0.11499    
1

 SOLVING FOR HEAD 

    ------------------------------------------------
       NWT REQUIRED            3 OUTER ITERATIONS 
       AND A TOTAL OF          3 INNER ITERATIONS.
    ------------------------------------------------

 OUTPUT CONTROL FOR STRESS PERIOD    2   TIME STEP   42
    SAVE HEAD FOR ALL LAYERS
    SAVE DRAWDOWN FOR ALL LAYERS
    SAVE BUDGET
    PRINT HEAD FOR ALL LAYERS
    PRINT BUDGET
1
              HEAD IN LAYER   1 AT END OF TIME STEP  42 IN STRESS PERIOD    2
  ---------------------------------------------------------------------------

            1           2           3           4           5           6           7           8           9          10
           11          12          13          14          15          16          17          18          19          20
 ........................................................................................................................
   1    0.000       0.000       0.000       0.000       0.000       7.202       7.191       7.214       7.232       7.242    
        7.245       7.253       7.388       7.823       7.394       7.274       7.288       7.305       0.000       0.000    
   2    0.000       0.000       0.000       0.000       7.217       7.211       7.158       7.221       7.238       7.248    
        7.250       7.255       7.362       7.826       7.366       7.259       7.286       7.307       0.000       0.000    
   3    0.000       0.000       0.000       0.000       7.247       7.335       7.364       7.356       7.336       7.338    
        7.337       7.329       7.345       7.830       7.328       7.202       7.284       7.315       0.000       0.000    
   4    0.000       0.000       0.000       7.315       7.407       7.824       7.818       7.822       7.828       7.827    
        7.826       7.811       7.473       7.834       7.344       7.277       7.310       7.335       0.000       0.000    
   5    0.000       0.000       7.630       7.754       7.834       7.816       7.441       7.373       7.355       7.356    
        7.412       7.823       7.833       7.810       7.350       7.311       7.339       7.366       7.390       0.000    
   6    0.000       7.836       7.836       7.830       7.691       7.383       7.291       7.280       7.276       7.272    
        7.285       7.358       7.371       7.364       7.311       7.332       7.364       7.386       7.396       0.000    
   7    0.000       7.363       7.369       7.366       7.332       7.296       7.290       7.288       7.280       7.265    
        7.281       7.298       7.306       7.309       7.309       7.349       7.382       7.403       0.000       0.000    
   8    0.000       7.284       7.298       7.304       7.306       7.308       7.310       7.305       7.286       7.220    
        7.288       7.310       7.319       7.315       7.269       7.358       7.399       7.424       0.000       0.000    
   9    0.000       0.000       7.315       7.319       7.323       7.326       7.327       7.322       7.311       7.296    
        7.314       7.329       7.338       7.343       7.347       7.384       7.419       7.449       7.483       7.500    
  10    0.000       0.000       7.328       7.331       7.334       7.336       7.336       7.332       7.325       7.321    
        7.329       7.340       7.350       7.359       7.372       7.400       7.430       7.459       7.486       7.500    

 HEAD WILL BE SAVED ON UNIT   51 AT END OF TIME STEP   42, STRESS PERIOD    2

 DRAWDOWN WILL BE SAVED ON UNIT   52 AT END OF TIME STEP   42, STRESS PERIOD    2
1
  VOLUMETRIC BUDGET FOR ENTIRE MODEL AT END OF TIME STEP   42, STRESS PERIOD   2
  ------------------------------------------------------------------------------

     CUMULATIVE VOLUMES      L**3       RATES FOR THIS TIME STEP      L**3/T
     ------------------                 ------------------------

           IN:                                      IN:
           ---                                      ---
             STORAGE =        1783.3784               STORAGE =          23.3381
       CONSTANT HEAD =           0.0000         CONSTANT HEAD =           0.0000
               WELLS =           0.0000                 WELLS =           0.0000
       RIVER LEAKAGE =      656301.1250         RIVER LEAKAGE =        4281.8491
            RECHARGE =       25619.1875              RECHARGE =         599.7326

            TOTAL IN =      683703.6875              TOTAL IN =        4904.9194

          OUT:                                     OUT:
          ----                                     ----
             STORAGE =      672643.0000               STORAGE =        4651.4976
       CONSTANT HEAD =           0.0000         CONSTANT HEAD =           0.0000
               WELLS =       10854.5000                 WELLS =         254.5907
       RIVER LEAKAGE =         268.8873         RIVER LEAKAGE =           0.0000
            RECHARGE =           0.0000              RECHARGE =           0.0000

           TOTAL OUT =      683766.3750             TOTAL OUT =        4906.0884

            IN - OUT =         -62.6875              IN - OUT =          -1.1689

 PERCENT DISCREPANCY =          -0.01     PERCENT DISCREPANCY =          -0.02






         TIME SUMMARY AT END OF TIME STEP   42 IN STRESS PERIOD    2
                    SECONDS     MINUTES      HOURS       DAYS        YEARS
                    -----------------------------------------------------------
   TIME STEP LENGTH  86400.      1440.0      24.000      1.0000     2.73785E-03
 STRESS PERIOD TIME 3.62880E+06  60480.      1008.0      42.000     0.11499    
         TOTAL TIME 3.71520E+06  61920.      1032.0      43.000     0.11773    
1

 SOLVING FOR HEAD 

    ------------------------------------------------
       NWT REQUIRED            3 OUTER ITERATIONS 
       AND A TOTAL OF          3 INNER ITERATIONS.
    ------------------------------------------------

 OUTPUT CONTROL FOR STRESS PERIOD    2   TIME STEP   43
    SAVE HEAD FOR ALL LAYERS
    SAVE DRAWDOWN FOR ALL LAYERS
    SAVE BUDGET
    PRINT HEAD FOR ALL LAYERS
    PRINT BUDGET
1
              HEAD IN LAYER   1 AT END OF TIME STEP  43 IN STRESS PERIOD    2
  ---------------------------------------------------------------------------

            1           2           3           4           5           6           7           8           9          10
           11          12          13          14          15          16          17          18          19          20
 ........................................................................................................................
   1    0.000       0.000       0.000       0.000       0.000       7.202       7.191       7.214       7.232       7.242    
        7.245       7.254       7.391       7.823       7.397       7.274       7.288       7.305       0.000       0.000    
   2    0.000       0.000       0.000       0.000       7.217       7.212       7.159       7.222       7.239       7.248    
        7.251       7.256       7.365       7.826       7.369       7.259       7.286       7.307       0.000       0.000    
   3    0.000       0.000       0.000       0.000       7.248       7.338       7.367       7.359       7.339       7.340    
        7.340       7.332       7.348       7.830       7.330       7.202       7.284       7.315       0.000       0.000    
   4    0.000       0.000       0.000       7.318       7.411       7.824       7.819       7.823       7.828       7.827    
        7.826       7.811       7.478       7.834       7.346       7.277       7.310       7.335       0.000       0.000    
   5    0.000       0.000       7.635       7.756       7.834       7.816       7.445       7.376       7.357       7.358    
        7.416       7.823       7.834       7.810       7.352       7.311       7.340       7.366       7.390       0.000    
   6    0.000       7.836       7.836       7.830       7.694       7.386       7.292       7.281       7.276       7.273    
        7.286       7.360       7.374       7.366       7.312       7.333       7.364       7.386       7.396       0.000    
   7    0.000       7.365       7.371       7.369       7.334       7.297       7.290       7.289       7.280       7.265    
        7.281       7.298       7.306       7.309       7.309       7.349       7.382       7.403       0.000       0.000    
   8    0.000       7.284       7.299       7.305       7.306       7.308       7.310       7.305       7.286       7.220    
        7.288       7.310       7.319       7.315       7.268       7.358       7.399       7.424       0.000       0.000    
   9    0.000       0.000       7.315       7.319       7.323       7.326       7.327       7.322       7.311       7.296    
        7.314       7.329       7.338       7.343       7.347       7.384       7.419       7.449       7.483       7.500    
  10    0.000       0.000       7.328       7.331       7.334       7.336       7.336       7.332       7.325       7.321    
        7.329       7.340       7.350       7.359       7.372       7.400       7.430       7.459       7.486       7.500    

 HEAD WILL BE SAVED ON UNIT   51 AT END OF TIME STEP   43, STRESS PERIOD    2

 DRAWDOWN WILL BE SAVED ON UNIT   52 AT END OF TIME STEP   43, STRESS PERIOD    2
1
  VOLUMETRIC BUDGET FOR ENTIRE MODEL AT END OF TIME STEP   43, STRESS PERIOD   2
  ------------------------------------------------------------------------------

     CUMULATIVE VOLUMES      L**3       RATES FOR THIS TIME STEP      L**3/T
     ------------------                 ------------------------

           IN:                                      IN:
           ---                                      ---
             STORAGE =        1806.3429               STORAGE =          22.9645
       CONSTANT HEAD =           0.0000         CONSTANT HEAD =           0.0000
               WELLS =           0.0000                 WELLS =           0.0000
       RIVER LEAKAGE =      660538.6875         RIVER LEAKAGE =        4237.5425
            RECHARGE =       26218.9199              RECHARGE =         599.7326

            TOTAL IN =      688563.9375              TOTAL IN =        4860.2393

          OUT:                                     OUT:
          ----                                     ----
             STORAGE =      677249.8125               STORAGE =        4606.8057
       CONSTANT HEAD =           0.0000         CONSTANT HEAD =           0.0000
               WELLS =       11109.0908                 WELLS =         254.5907
       RIVER LEAKAGE =         268.8873         RIVER LEAKAGE =           0.0000
            RECHARGE =           0.0000              RECHARGE =           0.0000

           TOTAL OUT =      688627.7500             TOTAL OUT =        4861.3965

            IN - OUT =         -63.8125              IN - OUT =          -1.1572

 PERCENT DISCREPANCY =          -0.01     PERCENT DISCREPANCY =          -0.02






         TIME SUMMARY AT END OF TIME STEP   43 IN STRESS PERIOD    2
                    SECONDS     MINUTES      HOURS       DAYS        YEARS
                    -----------------------------------------------------------
   TIME STEP LENGTH  86400.      1440.0      24.000      1.0000     2.73785E-03
 STRESS PERIOD TIME 3.71520E+06  61920.      1032.0      43.000     0.11773    
         TOTAL TIME 3.80160E+06  63360.      1056.0      44.000     0.12047    
1

 SOLVING FOR HEAD 

    ------------------------------------------------
       NWT REQUIRED            3 OUTER ITERATIONS 
       AND A TOTAL OF          3 INNER ITERATIONS.
    ------------------------------------------------

 OUTPUT CONTROL FOR STRESS PERIOD    2   TIME STEP   44
    SAVE HEAD FOR ALL LAYERS
    SAVE DRAWDOWN FOR ALL LAYERS
    SAVE BUDGET
    PRINT HEAD FOR ALL LAYERS
    PRINT BUDGET
1
              HEAD IN LAYER   1 AT END OF TIME STEP  44 IN STRESS PERIOD    2
  ---------------------------------------------------------------------------

            1           2           3           4           5           6           7           8           9          10
           11          12          13          14          15          16          17          18          19          20
 ........................................................................................................................
   1    0.000       0.000       0.000       0.000       0.000       7.202       7.191       7.214       7.232       7.242    
        7.245       7.254       7.394       7.823       7.401       7.275       7.288       7.305       0.000       0.000    
   2    0.000       0.000       0.000       0.000       7.217       7.212       7.160       7.223       7.240       7.249    
        7.251       7.257       7.368       7.826       7.372       7.260       7.286       7.307       0.000       0.000    
   3    0.000       0.000       0.000       0.000       7.250       7.340       7.370       7.361       7.341       7.343    
        7.342       7.334       7.351       7.830       7.333       7.203       7.284       7.315       0.000       0.000    
   4    0.000       0.000       0.000       7.321       7.414       7.824       7.819       7.823       7.828       7.827    
        7.826       7.812       7.483       7.834       7.348       7.277       7.310       7.335       0.000       0.000    
   5    0.000       0.000       7.641       7.759       7.834       7.817       7.448       7.379       7.360       7.361    
        7.419       7.823       7.834       7.810       7.354       7.311       7.340       7.366       7.390       0.000    
   6    0.000       7.836       7.836       7.830       7.697       7.389       7.294       7.281       7.277       7.273    
        7.287       7.363       7.376       7.369       7.313       7.333       7.364       7.386       7.396       0.000    
   7    0.000       7.367       7.374       7.371       7.336       7.298       7.290       7.289       7.280       7.265    
        7.281       7.299       7.307       7.310       7.309       7.349       7.382       7.403       0.000       0.000    
   8    0.000       7.285       7.299       7.305       7.307       7.308       7.310       7.305       7.286       7.220    
        7.288       7.310       7.319       7.315       7.268       7.358       7.399       7.424       0.000       0.000    
   9    0.000       0.000       7.315       7.319       7.323       7.326       7.327       7.322       7.311       7.296    
        7.314       7.329       7.338       7.343       7.346       7.384       7.419       7.450       7.483       7.500    
  10    0.000       0.000       7.328       7.331       7.334       7.336       7.336       7.332       7.325       7.321    
        7.329       7.340       7.350       7.359       7.372       7.400       7.430       7.459       7.486       7.500    

 HEAD WILL BE SAVED ON UNIT   51 AT END OF TIME STEP   44, STRESS PERIOD    2

 DRAWDOWN WILL BE SAVED ON UNIT   52 AT END OF TIME STEP   44, STRESS PERIOD    2
1
  VOLUMETRIC BUDGET FOR ENTIRE MODEL AT END OF TIME STEP   44, STRESS PERIOD   2
  ------------------------------------------------------------------------------

     CUMULATIVE VOLUMES      L**3       RATES FOR THIS TIME STEP      L**3/T
     ------------------                 ------------------------

           IN:                                      IN:
           ---                                      ---
             STORAGE =        1828.9336               STORAGE =          22.5907
       CONSTANT HEAD =           0.0000         CONSTANT HEAD =           0.0000
               WELLS =           0.0000                 WELLS =           0.0000
       RIVER LEAKAGE =      664733.4375         RIVER LEAKAGE =        4194.7197
            RECHARGE =       26818.6523              RECHARGE =         599.7326

            TOTAL IN =      693381.0000              TOTAL IN =        4817.0430

          OUT:                                     OUT:
          ----                                     ----
             STORAGE =      681813.4375               STORAGE =        4563.5977
       CONSTANT HEAD =           0.0000         CONSTANT HEAD =           0.0000
               WELLS =       11363.6816                 WELLS =         254.5907
       RIVER LEAKAGE =         268.8873         RIVER LEAKAGE =           0.0000
            RECHARGE =           0.0000              RECHARGE =           0.0000

           TOTAL OUT =      693446.0000             TOTAL OUT =        4818.1885

            IN - OUT =         -65.0000              IN - OUT =          -1.1455

 PERCENT DISCREPANCY =          -0.01     PERCENT DISCREPANCY =          -0.02






         TIME SUMMARY AT END OF TIME STEP   44 IN STRESS PERIOD    2
                    SECONDS     MINUTES      HOURS       DAYS        YEARS
                    -----------------------------------------------------------
   TIME STEP LENGTH  86400.      1440.0      24.000      1.0000     2.73785E-03
 STRESS PERIOD TIME 3.80160E+06  63360.      1056.0      44.000     0.12047    
         TOTAL TIME 3.88800E+06  64800.      1080.0      45.000     0.12320    
1

 SOLVING FOR HEAD 

    ------------------------------------------------
       NWT REQUIRED            3 OUTER ITERATIONS 
       AND A TOTAL OF          3 INNER ITERATIONS.
    ------------------------------------------------

 OUTPUT CONTROL FOR STRESS PERIOD    2   TIME STEP   45
    SAVE HEAD FOR ALL LAYERS
    SAVE DRAWDOWN FOR ALL LAYERS
    SAVE BUDGET
    PRINT HEAD FOR ALL LAYERS
    PRINT BUDGET
1
              HEAD IN LAYER   1 AT END OF TIME STEP  45 IN STRESS PERIOD    2
  ---------------------------------------------------------------------------

            1           2           3           4           5           6           7           8           9          10
           11          12          13          14          15          16          17          18          19          20
 ........................................................................................................................
   1    0.000       0.000       0.000       0.000       0.000       7.202       7.191       7.215       7.232       7.242    
        7.245       7.255       7.397       7.823       7.404       7.276       7.289       7.305       0.000       0.000    
   2    0.000       0.000       0.000       0.000       7.217       7.213       7.160       7.224       7.240       7.249    
        7.252       7.258       7.371       7.826       7.375       7.260       7.286       7.307       0.000       0.000    
   3    0.000       0.000       0.000       0.000       7.251       7.343       7.372       7.364       7.344       7.345    
        7.344       7.337       7.355       7.830       7.335       7.203       7.284       7.315       0.000       0.000    
   4    0.000       0.000       0.000       7.325       7.417       7.824       7.819       7.823       7.829       7.827    
        7.826       7.812       7.487       7.834       7.350       7.278       7.310       7.335       0.000       0.000    
   5    0.000       0.000       7.647       7.761       7.834       7.817       7.452       7.382       7.362       7.364    
        7.422       7.824       7.834       7.811       7.356       7.312       7.340       7.366       7.390       0.000    
   6    0.000       7.836       7.836       7.831       7.700       7.392       7.295       7.282       7.278       7.274    
        7.289       7.365       7.378       7.371       7.313       7.333       7.364       7.386       7.396       0.000    
   7    0.000       7.370       7.376       7.373       7.338       7.298       7.291       7.289       7.280       7.265    
        7.281       7.299       7.307       7.310       7.310       7.349       7.382       7.403       0.000       0.000    
   8    0.000       7.286       7.300       7.306       7.307       7.308       7.310       7.305       7.286       7.220    
        7.288       7.310       7.319       7.315       7.268       7.358       7.399       7.424       0.000       0.000    
   9    0.000       0.000       7.316       7.319       7.323       7.326       7.327       7.322       7.311       7.296    
        7.314       7.329       7.338       7.343       7.346       7.385       7.419       7.450       7.483       7.500    
  10    0.000       0.000       7.328       7.331       7.334       7.336       7.336       7.332       7.325       7.321    
        7.329       7.340       7.350       7.359       7.372       7.400       7.430       7.459       7.486       7.500    

 HEAD WILL BE SAVED ON UNIT   51 AT END OF TIME STEP   45, STRESS PERIOD    2

 DRAWDOWN WILL BE SAVED ON UNIT   52 AT END OF TIME STEP   45, STRESS PERIOD    2
1
  VOLUMETRIC BUDGET FOR ENTIRE MODEL AT END OF TIME STEP   45, STRESS PERIOD   2
  ------------------------------------------------------------------------------

     CUMULATIVE VOLUMES      L**3       RATES FOR THIS TIME STEP      L**3/T
     ------------------                 ------------------------

           IN:                                      IN:
           ---                                      ---
             STORAGE =        1851.1505               STORAGE =          22.2169
       CONSTANT HEAD =           0.0000         CONSTANT HEAD =           0.0000
               WELLS =           0.0000                 WELLS =           0.0000
       RIVER LEAKAGE =      668886.6875         RIVER LEAKAGE =        4153.2734
            RECHARGE =       27418.3848              RECHARGE =         599.7326

            TOTAL IN =      698156.1875              TOTAL IN =        4775.2227

          OUT:                                     OUT:
          ----                                     ----
             STORAGE =      686335.1875               STORAGE =        4521.7671
       CONSTANT HEAD =           0.0000         CONSTANT HEAD =           0.0000
               WELLS =       11618.2725                 WELLS =         254.5907
       RIVER LEAKAGE =         268.8873         RIVER LEAKAGE =           0.0000
            RECHARGE =           0.0000              RECHARGE =           0.0000

           TOTAL OUT =      698222.3125             TOTAL OUT =        4776.3579

            IN - OUT =         -66.1250              IN - OUT =          -1.1353

 PERCENT DISCREPANCY =          -0.01     PERCENT DISCREPANCY =          -0.02






         TIME SUMMARY AT END OF TIME STEP   45 IN STRESS PERIOD    2
                    SECONDS     MINUTES      HOURS       DAYS        YEARS
                    -----------------------------------------------------------
   TIME STEP LENGTH  86400.      1440.0      24.000      1.0000     2.73785E-03
 STRESS PERIOD TIME 3.88800E+06  64800.      1080.0      45.000     0.12320    
         TOTAL TIME 3.97440E+06  66240.      1104.0      46.000     0.12594    
1

 SOLVING FOR HEAD 

    ------------------------------------------------
       NWT REQUIRED            3 OUTER ITERATIONS 
       AND A TOTAL OF          3 INNER ITERATIONS.
    ------------------------------------------------

 OUTPUT CONTROL FOR STRESS PERIOD    2   TIME STEP   46
    SAVE HEAD FOR ALL LAYERS
    SAVE DRAWDOWN FOR ALL LAYERS
    SAVE BUDGET
    PRINT HEAD FOR ALL LAYERS
    PRINT BUDGET
1
              HEAD IN LAYER   1 AT END OF TIME STEP  46 IN STRESS PERIOD    2
  ---------------------------------------------------------------------------

            1           2           3           4           5           6           7           8           9          10
           11          12          13          14          15          16          17          18          19          20
 ........................................................................................................................
   1    0.000       0.000       0.000       0.000       0.000       7.203       7.191       7.215       7.232       7.242    
        7.245       7.256       7.400       7.824       7.407       7.277       7.289       7.305       0.000       0.000    
   2    0.000       0.000       0.000       0.000       7.218       7.213       7.161       7.224       7.241       7.250    
        7.252       7.259       7.374       7.826       7.378       7.261       7.286       7.307       0.000       0.000    
   3    0.000       0.000       0.000       0.000       7.252       7.345       7.375       7.367       7.346       7.348    
        7.347       7.339       7.358       7.830       7.337       7.203       7.284       7.315       0.000       0.000    
   4    0.000       0.000       0.000       7.328       7.421       7.824       7.819       7.823       7.829       7.827    
        7.826       7.813       7.492       7.834       7.352       7.278       7.310       7.336       0.000       0.000    
   5    0.000       0.000       7.652       7.763       7.834       7.817       7.456       7.385       7.365       7.366    
        7.426       7.824       7.834       7.811       7.358       7.312       7.340       7.366       7.390       0.000    
   6    0.000       7.836       7.837       7.831       7.703       7.395       7.297       7.283       7.278       7.275    
        7.290       7.367       7.380       7.373       7.314       7.333       7.364       7.386       7.396       0.000    
   7    0.000       7.372       7.378       7.376       7.340       7.299       7.291       7.289       7.280       7.265    
        7.281       7.300       7.308       7.311       7.310       7.349       7.382       7.403       0.000       0.000    
   8    0.000       7.286       7.301       7.307       7.307       7.309       7.310       7.305       7.286       7.219    
        7.288       7.310       7.319       7.315       7.268       7.357       7.399       7.424       0.000       0.000    
   9    0.000       0.000       7.316       7.319       7.323       7.326       7.327       7.322       7.311       7.296    
        7.314       7.329       7.338       7.343       7.346       7.385       7.419       7.450       7.483       7.500    
  10    0.000       0.000       7.329       7.331       7.334       7.336       7.336       7.332       7.325       7.321    
        7.329       7.340       7.350       7.359       7.372       7.400       7.430       7.459       7.486       7.500    

 HEAD WILL BE SAVED ON UNIT   51 AT END OF TIME STEP   46, STRESS PERIOD    2

 DRAWDOWN WILL BE SAVED ON UNIT   52 AT END OF TIME STEP   46, STRESS PERIOD    2
1
  VOLUMETRIC BUDGET FOR ENTIRE MODEL AT END OF TIME STEP   46, STRESS PERIOD   2
  ------------------------------------------------------------------------------

     CUMULATIVE VOLUMES      L**3       RATES FOR THIS TIME STEP      L**3/T
     ------------------                 ------------------------

           IN:                                      IN:
           ---                                      ---
             STORAGE =        1872.9932               STORAGE =          21.8427
       CONSTANT HEAD =           0.0000         CONSTANT HEAD =           0.0000
               WELLS =           0.0000                 WELLS =           0.0000
       RIVER LEAKAGE =      672999.8125         RIVER LEAKAGE =        4113.1226
            RECHARGE =       28018.1172              RECHARGE =         599.7326

            TOTAL IN =      702890.9375              TOTAL IN =        4734.6978

          OUT:                                     OUT:
          ----                                     ----
             STORAGE =      690816.4375               STORAGE =        4481.2314
       CONSTANT HEAD =           0.0000         CONSTANT HEAD =           0.0000
               WELLS =       11872.8633                 WELLS =         254.5907
       RIVER LEAKAGE =         268.8873         RIVER LEAKAGE =           0.0000
            RECHARGE =           0.0000              RECHARGE =           0.0000

           TOTAL OUT =      702958.1875             TOTAL OUT =        4735.8223

            IN - OUT =         -67.2500              IN - OUT =          -1.1245

 PERCENT DISCREPANCY =          -0.01     PERCENT DISCREPANCY =          -0.02






         TIME SUMMARY AT END OF TIME STEP   46 IN STRESS PERIOD    2
                    SECONDS     MINUTES      HOURS       DAYS        YEARS
                    -----------------------------------------------------------
   TIME STEP LENGTH  86400.      1440.0      24.000      1.0000     2.73785E-03
 STRESS PERIOD TIME 3.97440E+06  66240.      1104.0      46.000     0.12594    
         TOTAL TIME 4.06080E+06  67680.      1128.0      47.000     0.12868    
1

 SOLVING FOR HEAD 

    ------------------------------------------------
       NWT REQUIRED            3 OUTER ITERATIONS 
       AND A TOTAL OF          3 INNER ITERATIONS.
    ------------------------------------------------

 OUTPUT CONTROL FOR STRESS PERIOD    2   TIME STEP   47
    SAVE HEAD FOR ALL LAYERS
    SAVE DRAWDOWN FOR ALL LAYERS
    SAVE BUDGET
    PRINT HEAD FOR ALL LAYERS
    PRINT BUDGET
1
              HEAD IN LAYER   1 AT END OF TIME STEP  47 IN STRESS PERIOD    2
  ---------------------------------------------------------------------------

            1           2           3           4           5           6           7           8           9          10
           11          12          13          14          15          16          17          18          19          20
 ........................................................................................................................
   1    0.000       0.000       0.000       0.000       0.000       7.203       7.192       7.215       7.232       7.242    
        7.246       7.257       7.403       7.824       7.410       7.277       7.289       7.305       0.000       0.000    
   2    0.000       0.000       0.000       0.000       7.218       7.214       7.162       7.225       7.242       7.250    
        7.253       7.261       7.377       7.827       7.380       7.261       7.286       7.307       0.000       0.000    
   3    0.000       0.000       0.000       0.000       7.254       7.347       7.378       7.370       7.349       7.350    
        7.349       7.342       7.361       7.830       7.339       7.203       7.284       7.315       0.000       0.000    
   4    0.000       0.000       0.000       7.331       7.424       7.824       7.819       7.823       7.829       7.828    
        7.826       7.813       7.496       7.834       7.354       7.278       7.310       7.336       0.000       0.000    
   5    0.000       0.000       7.657       7.765       7.834       7.817       7.459       7.387       7.367       7.369    
        7.429       7.824       7.834       7.811       7.359       7.312       7.340       7.366       7.390       0.000    
   6    0.000       7.836       7.837       7.831       7.706       7.398       7.298       7.284       7.279       7.275    
        7.291       7.369       7.383       7.375       7.315       7.333       7.365       7.386       7.396       0.000    
   7    0.000       7.375       7.381       7.378       7.342       7.300       7.291       7.289       7.280       7.265    
        7.282       7.300       7.309       7.311       7.310       7.349       7.382       7.403       0.000       0.000    
   8    0.000       7.287       7.301       7.307       7.308       7.309       7.310       7.305       7.286       7.219    
        7.288       7.310       7.319       7.315       7.267       7.357       7.399       7.424       0.000       0.000    
   9    0.000       0.000       7.316       7.319       7.323       7.326       7.327       7.322       7.311       7.296    
        7.314       7.329       7.338       7.343       7.346       7.385       7.419       7.450       7.483       7.500    
  10    0.000       0.000       7.329       7.331       7.334       7.336       7.336       7.332       7.326       7.321    
        7.329       7.340       7.350       7.359       7.372       7.400       7.430       7.459       7.486       7.500    

 HEAD WILL BE SAVED ON UNIT   51 AT END OF TIME STEP   47, STRESS PERIOD    2

 DRAWDOWN WILL BE SAVED ON UNIT   52 AT END OF TIME STEP   47, STRESS PERIOD    2
1
  VOLUMETRIC BUDGET FOR ENTIRE MODEL AT END OF TIME STEP   47, STRESS PERIOD   2
  ------------------------------------------------------------------------------

     CUMULATIVE VOLUMES      L**3       RATES FOR THIS TIME STEP      L**3/T
     ------------------                 ------------------------

           IN:                                      IN:
           ---                                      ---
             STORAGE =        1894.4618               STORAGE =          21.4686
       CONSTANT HEAD =           0.0000         CONSTANT HEAD =           0.0000
               WELLS =           0.0000                 WELLS =           0.0000
       RIVER LEAKAGE =      677074.0000         RIVER LEAKAGE =        4074.1604
            RECHARGE =       28617.8496              RECHARGE =         599.7326

            TOTAL IN =      707586.3125              TOTAL IN =        4695.3613

          OUT:                                     OUT:
          ----                                     ----
             STORAGE =      695258.3125               STORAGE =        4441.8853
       CONSTANT HEAD =           0.0000         CONSTANT HEAD =           0.0000
               WELLS =       12127.4541                 WELLS =         254.5907
       RIVER LEAKAGE =         268.8873         RIVER LEAKAGE =           0.0000
            RECHARGE =           0.0000              RECHARGE =           0.0000

           TOTAL OUT =      707654.6250             TOTAL OUT =        4696.4761

            IN - OUT =         -68.3125              IN - OUT =          -1.1147

 PERCENT DISCREPANCY =          -0.01     PERCENT DISCREPANCY =          -0.02






         TIME SUMMARY AT END OF TIME STEP   47 IN STRESS PERIOD    2
                    SECONDS     MINUTES      HOURS       DAYS        YEARS
                    -----------------------------------------------------------
   TIME STEP LENGTH  86400.      1440.0      24.000      1.0000     2.73785E-03
 STRESS PERIOD TIME 4.06080E+06  67680.      1128.0      47.000     0.12868    
         TOTAL TIME 4.14720E+06  69120.      1152.0      48.000     0.13142    
1

 SOLVING FOR HEAD 

    ------------------------------------------------
       NWT REQUIRED            3 OUTER ITERATIONS 
       AND A TOTAL OF          3 INNER ITERATIONS.
    ------------------------------------------------

 OUTPUT CONTROL FOR STRESS PERIOD    2   TIME STEP   48
    SAVE HEAD FOR ALL LAYERS
    SAVE DRAWDOWN FOR ALL LAYERS
    SAVE BUDGET
    PRINT HEAD FOR ALL LAYERS
    PRINT BUDGET
1
              HEAD IN LAYER   1 AT END OF TIME STEP  48 IN STRESS PERIOD    2
  ---------------------------------------------------------------------------

            1           2           3           4           5           6           7           8           9          10
           11          12          13          14          15          16          17          18          19          20
 ........................................................................................................................
   1    0.000       0.000       0.000       0.000       0.000       7.203       7.192       7.215       7.233       7.242    
        7.246       7.258       7.406       7.824       7.413       7.278       7.289       7.305       0.000       0.000    
   2    0.000       0.000       0.000       0.000       7.218       7.215       7.163       7.226       7.242       7.251    
        7.254       7.262       7.379       7.827       7.383       7.262       7.286       7.307       0.000       0.000    
   3    0.000       0.000       0.000       0.000       7.255       7.350       7.381       7.372       7.351       7.352    
        7.351       7.344       7.364       7.830       7.341       7.204       7.284       7.315       0.000       0.000    
   4    0.000       0.000       0.000       7.334       7.427       7.825       7.820       7.823       7.829       7.828    
        7.827       7.813       7.501       7.834       7.356       7.279       7.310       7.336       0.000       0.000    
   5    0.000       0.000       7.662       7.767       7.834       7.818       7.463       7.390       7.369       7.371    
        7.432       7.824       7.834       7.811       7.361       7.313       7.340       7.366       7.390       0.000    
   6    0.000       7.836       7.837       7.831       7.708       7.401       7.300       7.285       7.280       7.276    
        7.292       7.371       7.385       7.377       7.316       7.333       7.365       7.386       7.396       0.000    
   7    0.000       7.377       7.383       7.380       7.344       7.301       7.292       7.289       7.280       7.265    
        7.282       7.301       7.309       7.312       7.310       7.349       7.382       7.403       0.000       0.000    
   8    0.000       7.288       7.302       7.308       7.308       7.309       7.310       7.305       7.286       7.219    
        7.288       7.310       7.319       7.315       7.267       7.357       7.399       7.424       0.000       0.000    
   9    0.000       0.000       7.316       7.319       7.323       7.326       7.327       7.322       7.311       7.296    
        7.314       7.329       7.338       7.343       7.346       7.385       7.419       7.450       7.483       7.500    
  10    0.000       0.000       7.329       7.331       7.334       7.336       7.336       7.332       7.326       7.321    
        7.329       7.340       7.350       7.359       7.372       7.400       7.430       7.459       7.486       7.500    

 HEAD WILL BE SAVED ON UNIT   51 AT END OF TIME STEP   48, STRESS PERIOD    2

 DRAWDOWN WILL BE SAVED ON UNIT   52 AT END OF TIME STEP   48, STRESS PERIOD    2
1
  VOLUMETRIC BUDGET FOR ENTIRE MODEL AT END OF TIME STEP   48, STRESS PERIOD   2
  ------------------------------------------------------------------------------

     CUMULATIVE VOLUMES      L**3       RATES FOR THIS TIME STEP      L**3/T
     ------------------                 ------------------------

           IN:                                      IN:
           ---                                      ---
             STORAGE =        1915.5563               STORAGE =          21.0945
       CONSTANT HEAD =           0.0000         CONSTANT HEAD =           0.0000
               WELLS =           0.0000                 WELLS =           0.0000
       RIVER LEAKAGE =      681110.3125         RIVER LEAKAGE =        4036.3191
            RECHARGE =       29217.5820              RECHARGE =         599.7326

            TOTAL IN =      712243.4375              TOTAL IN =        4657.1460

          OUT:                                     OUT:
          ----                                     ----
             STORAGE =      699662.0000               STORAGE =        4403.6602
       CONSTANT HEAD =           0.0000         CONSTANT HEAD =           0.0000
               WELLS =       12382.0449                 WELLS =         254.5907
       RIVER LEAKAGE =         268.8873         RIVER LEAKAGE =           0.0000
            RECHARGE =           0.0000              RECHARGE =           0.0000

           TOTAL OUT =      712312.9375             TOTAL OUT =        4658.2510

            IN - OUT =         -69.5000              IN - OUT =          -1.1050

 PERCENT DISCREPANCY =          -0.01     PERCENT DISCREPANCY =          -0.02






         TIME SUMMARY AT END OF TIME STEP   48 IN STRESS PERIOD    2
                    SECONDS     MINUTES      HOURS       DAYS        YEARS
                    -----------------------------------------------------------
   TIME STEP LENGTH  86400.      1440.0      24.000      1.0000     2.73785E-03
 STRESS PERIOD TIME 4.14720E+06  69120.      1152.0      48.000     0.13142    
         TOTAL TIME 4.23360E+06  70560.      1176.0      49.000     0.13415    
1

 SOLVING FOR HEAD 

    ------------------------------------------------
       NWT REQUIRED            3 OUTER ITERATIONS 
       AND A TOTAL OF          3 INNER ITERATIONS.
    ------------------------------------------------

 OUTPUT CONTROL FOR STRESS PERIOD    2   TIME STEP   49
    SAVE HEAD FOR ALL LAYERS
    SAVE DRAWDOWN FOR ALL LAYERS
    SAVE BUDGET
    PRINT HEAD FOR ALL LAYERS
    PRINT BUDGET
1
              HEAD IN LAYER   1 AT END OF TIME STEP  49 IN STRESS PERIOD    2
  ---------------------------------------------------------------------------

            1           2           3           4           5           6           7           8           9          10
           11          12          13          14          15          16          17          18          19          20
 ........................................................................................................................
   1    0.000       0.000       0.000       0.000       0.000       7.203       7.192       7.215       7.233       7.243    
        7.246       7.258       7.409       7.824       7.416       7.279       7.289       7.305       0.000       0.000    
   2    0.000       0.000       0.000       0.000       7.219       7.215       7.163       7.227       7.243       7.252    
        7.254       7.263       7.382       7.827       7.385       7.262       7.286       7.307       0.000       0.000    
   3    0.000       0.000       0.000       0.000       7.257       7.352       7.384       7.375       7.353       7.354    
        7.353       7.347       7.367       7.830       7.343       7.204       7.284       7.315       0.000       0.000    
   4    0.000       0.000       0.000       7.337       7.431       7.825       7.820       7.823       7.829       7.828    
        7.827       7.814       7.505       7.834       7.358       7.279       7.310       7.336       0.000       0.000    
   5    0.000       0.000       7.667       7.769       7.835       7.818       7.467       7.393       7.372       7.374    
        7.435       7.824       7.834       7.812       7.363       7.313       7.340       7.366       7.390       0.000    
   6    0.000       7.836       7.837       7.831       7.711       7.404       7.301       7.285       7.280       7.277    
        7.293       7.373       7.387       7.379       7.316       7.333       7.365       7.386       7.396       0.000    
   7    0.000       7.379       7.385       7.382       7.346       7.302       7.292       7.289       7.280       7.265    
        7.282       7.301       7.310       7.312       7.310       7.349       7.382       7.403       0.000       0.000    
   8    0.000       7.288       7.302       7.308       7.309       7.309       7.310       7.305       7.286       7.219    
        7.288       7.311       7.319       7.315       7.267       7.357       7.399       7.424       0.000       0.000    
   9    0.000       0.000       7.316       7.319       7.323       7.326       7.327       7.322       7.311       7.296    
        7.314       7.329       7.338       7.343       7.346       7.385       7.419       7.450       7.483       7.500    
  10    0.000       0.000       7.329       7.331       7.334       7.336       7.336       7.332       7.326       7.321    
        7.329       7.340       7.350       7.359       7.372       7.400       7.430       7.459       7.486       7.500    

 HEAD WILL BE SAVED ON UNIT   51 AT END OF TIME STEP   49, STRESS PERIOD    2

 DRAWDOWN WILL BE SAVED ON UNIT   52 AT END OF TIME STEP   49, STRESS PERIOD    2
1
  VOLUMETRIC BUDGET FOR ENTIRE MODEL AT END OF TIME STEP   49, STRESS PERIOD   2
  ------------------------------------------------------------------------------

     CUMULATIVE VOLUMES      L**3       RATES FOR THIS TIME STEP      L**3/T
     ------------------                 ------------------------

           IN:                                      IN:
           ---                                      ---
             STORAGE =        1936.2764               STORAGE =          20.7201
       CONSTANT HEAD =           0.0000         CONSTANT HEAD =           0.0000
               WELLS =           0.0000                 WELLS =           0.0000
       RIVER LEAKAGE =      685109.8750         RIVER LEAKAGE =        3999.5322
            RECHARGE =       29817.3145              RECHARGE =         599.7326

            TOTAL IN =      716863.4375              TOTAL IN =        4619.9849

          OUT:                                     OUT:
          ----                                     ----
             STORAGE =      704028.5000               STORAGE =        4366.4893
       CONSTANT HEAD =           0.0000         CONSTANT HEAD =           0.0000
               WELLS =       12636.6357                 WELLS =         254.5907
       RIVER LEAKAGE =         268.8873         RIVER LEAKAGE =           0.0000
            RECHARGE =           0.0000              RECHARGE =           0.0000

           TOTAL OUT =      716934.0000             TOTAL OUT =        4621.0801

            IN - OUT =         -70.5625              IN - OUT =          -1.0952

 PERCENT DISCREPANCY =          -0.01     PERCENT DISCREPANCY =          -0.02






         TIME SUMMARY AT END OF TIME STEP   49 IN STRESS PERIOD    2
                    SECONDS     MINUTES      HOURS       DAYS        YEARS
                    -----------------------------------------------------------
   TIME STEP LENGTH  86400.      1440.0      24.000      1.0000     2.73785E-03
 STRESS PERIOD TIME 4.23360E+06  70560.      1176.0      49.000     0.13415    
         TOTAL TIME 4.32000E+06  72000.      1200.0      50.000     0.13689    
1

 SOLVING FOR HEAD 

    ------------------------------------------------
       NWT REQUIRED            3 OUTER ITERATIONS 
       AND A TOTAL OF          3 INNER ITERATIONS.
    ------------------------------------------------

 OUTPUT CONTROL FOR STRESS PERIOD    2   TIME STEP   50
    SAVE HEAD FOR ALL LAYERS
    SAVE DRAWDOWN FOR ALL LAYERS
    SAVE BUDGET
    PRINT HEAD FOR ALL LAYERS
    PRINT BUDGET
1
              HEAD IN LAYER   1 AT END OF TIME STEP  50 IN STRESS PERIOD    2
  ---------------------------------------------------------------------------

            1           2           3           4           5           6           7           8           9          10
           11          12          13          14          15          16          17          18          19          20
 ........................................................................................................................
   1    0.000       0.000       0.000       0.000       0.000       7.203       7.192       7.215       7.233       7.243    
        7.246       7.259       7.412       7.824       7.419       7.279       7.289       7.305       0.000       0.000    
   2    0.000       0.000       0.000       0.000       7.219       7.216       7.164       7.228       7.244       7.252    
        7.255       7.264       7.385       7.827       7.388       7.263       7.286       7.307       0.000       0.000    
   3    0.000       0.000       0.000       0.000       7.258       7.355       7.386       7.378       7.356       7.357    
        7.356       7.349       7.370       7.830       7.346       7.204       7.284       7.315       0.000       0.000    
   4    0.000       0.000       0.000       7.340       7.434       7.825       7.820       7.823       7.829       7.828    
        7.827       7.814       7.509       7.834       7.360       7.280       7.310       7.336       0.000       0.000    
   5    0.000       0.000       7.672       7.771       7.835       7.818       7.470       7.396       7.374       7.376    
        7.438       7.824       7.834       7.812       7.365       7.313       7.340       7.366       7.390       0.000    
   6    0.000       7.836       7.837       7.831       7.713       7.407       7.303       7.286       7.281       7.277    
        7.294       7.375       7.389       7.381       7.317       7.333       7.365       7.386       7.396       0.000    
   7    0.000       7.381       7.387       7.384       7.348       7.303       7.292       7.289       7.281       7.265    
        7.282       7.302       7.310       7.313       7.310       7.349       7.383       7.403       0.000       0.000    
   8    0.000       7.289       7.303       7.309       7.309       7.309       7.310       7.305       7.286       7.219    
        7.288       7.311       7.319       7.315       7.267       7.357       7.399       7.424       0.000       0.000    
   9    0.000       0.000       7.316       7.320       7.323       7.326       7.327       7.322       7.311       7.296    
        7.314       7.329       7.338       7.343       7.346       7.385       7.419       7.450       7.483       7.500    
  10    0.000       0.000       7.329       7.331       7.334       7.336       7.336       7.332       7.326       7.321    
        7.329       7.340       7.350       7.359       7.372       7.400       7.430       7.460       7.486       7.500    

 HEAD WILL BE SAVED ON UNIT   51 AT END OF TIME STEP   50, STRESS PERIOD    2

 DRAWDOWN WILL BE SAVED ON UNIT   52 AT END OF TIME STEP   50, STRESS PERIOD    2
1
  VOLUMETRIC BUDGET FOR ENTIRE MODEL AT END OF TIME STEP   50, STRESS PERIOD   2
  ------------------------------------------------------------------------------

     CUMULATIVE VOLUMES      L**3       RATES FOR THIS TIME STEP      L**3/T
     ------------------                 ------------------------

           IN:                                      IN:
           ---                                      ---
             STORAGE =        1956.6215               STORAGE =          20.3451
       CONSTANT HEAD =           0.0000         CONSTANT HEAD =           0.0000
               WELLS =           0.0000                 WELLS =           0.0000
       RIVER LEAKAGE =      689073.6250         RIVER LEAKAGE =        3963.7319
            RECHARGE =       30417.0469              RECHARGE =         599.7326

            TOTAL IN =      721447.3125              TOTAL IN =        4583.8096

          OUT:                                     OUT:
          ----                                     ----
             STORAGE =      708358.8125               STORAGE =        4330.3047
       CONSTANT HEAD =           0.0000         CONSTANT HEAD =           0.0000
               WELLS =       12891.2266                 WELLS =         254.5907
       RIVER LEAKAGE =         268.8873         RIVER LEAKAGE =           0.0000
            RECHARGE =           0.0000              RECHARGE =           0.0000

           TOTAL OUT =      721518.9375             TOTAL OUT =        4584.8955

            IN - OUT =         -71.6250              IN - OUT =          -1.0859

 PERCENT DISCREPANCY =          -0.01     PERCENT DISCREPANCY =          -0.02






         TIME SUMMARY AT END OF TIME STEP   50 IN STRESS PERIOD    2
                    SECONDS     MINUTES      HOURS       DAYS        YEARS
                    -----------------------------------------------------------
   TIME STEP LENGTH  86400.      1440.0      24.000      1.0000     2.73785E-03
 STRESS PERIOD TIME 4.32000E+06  72000.      1200.0      50.000     0.13689    
         TOTAL TIME 4.40640E+06  73440.      1224.0      51.000     0.13963    
1

 SOLVING FOR HEAD 

    ------------------------------------------------
       NWT REQUIRED            3 OUTER ITERATIONS 
       AND A TOTAL OF          3 INNER ITERATIONS.
    ------------------------------------------------

 OUTPUT CONTROL FOR STRESS PERIOD    2   TIME STEP   51
    SAVE HEAD FOR ALL LAYERS
    SAVE DRAWDOWN FOR ALL LAYERS
    SAVE BUDGET
    PRINT HEAD FOR ALL LAYERS
    PRINT BUDGET
1
              HEAD IN LAYER   1 AT END OF TIME STEP  51 IN STRESS PERIOD    2
  ---------------------------------------------------------------------------

            1           2           3           4           5           6           7           8           9          10
           11          12          13          14          15          16          17          18          19          20
 ........................................................................................................................
   1    0.000       0.000       0.000       0.000       0.000       7.203       7.192       7.215       7.233       7.243    
        7.246       7.260       7.415       7.824       7.422       7.280       7.289       7.305       0.000       0.000    
   2    0.000       0.000       0.000       0.000       7.219       7.217       7.165       7.229       7.244       7.253    
        7.256       7.265       7.388       7.827       7.391       7.264       7.286       7.307       0.000       0.000    
   3    0.000       0.000       0.000       0.000       7.260       7.357       7.389       7.380       7.358       7.359    
        7.358       7.352       7.374       7.830       7.348       7.204       7.284       7.315       0.000       0.000    
   4    0.000       0.000       0.000       7.343       7.437       7.825       7.820       7.824       7.829       7.828    
        7.827       7.814       7.514       7.834       7.362       7.280       7.311       7.336       0.000       0.000    
   5    0.000       0.000       7.676       7.772       7.835       7.818       7.473       7.398       7.377       7.379    
        7.441       7.824       7.834       7.812       7.366       7.314       7.340       7.367       7.390       0.000    
   6    0.000       7.836       7.837       7.831       7.715       7.410       7.304       7.287       7.282       7.278    
        7.296       7.377       7.391       7.383       7.318       7.334       7.365       7.386       7.396       0.000    
   7    0.000       7.384       7.390       7.386       7.350       7.304       7.293       7.290       7.281       7.265    
        7.282       7.302       7.311       7.313       7.310       7.349       7.383       7.403       0.000       0.000    
   8    0.000       7.290       7.304       7.309       7.309       7.309       7.310       7.305       7.286       7.218    
        7.288       7.311       7.319       7.315       7.267       7.357       7.399       7.424       0.000       0.000    
   9    0.000       0.000       7.316       7.320       7.323       7.326       7.327       7.322       7.311       7.296    
        7.314       7.329       7.339       7.343       7.346       7.385       7.419       7.450       7.483       7.500    
  10    0.000       0.000       7.329       7.331       7.334       7.336       7.336       7.332       7.326       7.321    
        7.329       7.340       7.350       7.359       7.372       7.400       7.430       7.460       7.486       7.500    

 HEAD WILL BE SAVED ON UNIT   51 AT END OF TIME STEP   51, STRESS PERIOD    2

 DRAWDOWN WILL BE SAVED ON UNIT   52 AT END OF TIME STEP   51, STRESS PERIOD    2
1
  VOLUMETRIC BUDGET FOR ENTIRE MODEL AT END OF TIME STEP   51, STRESS PERIOD   2
  ------------------------------------------------------------------------------

     CUMULATIVE VOLUMES      L**3       RATES FOR THIS TIME STEP      L**3/T
     ------------------                 ------------------------

           IN:                                      IN:
           ---                                      ---
             STORAGE =        1976.5919               STORAGE =          19.9704
       CONSTANT HEAD =           0.0000         CONSTANT HEAD =           0.0000
               WELLS =           0.0000                 WELLS =           0.0000
       RIVER LEAKAGE =      693002.5000         RIVER LEAKAGE =        3928.8611
            RECHARGE =       31016.7793              RECHARGE =         599.7326

            TOTAL IN =      725995.8125              TOTAL IN =        4548.5640

          OUT:                                     OUT:
          ----                                     ----
             STORAGE =      712653.8750               STORAGE =        4295.0503
       CONSTANT HEAD =           0.0000         CONSTANT HEAD =           0.0000
               WELLS =       13145.8174                 WELLS =         254.5907
       RIVER LEAKAGE =         268.8873         RIVER LEAKAGE =           0.0000
            RECHARGE =           0.0000              RECHARGE =           0.0000

           TOTAL OUT =      726068.5625             TOTAL OUT =        4549.6411

            IN - OUT =         -72.7500              IN - OUT =          -1.0771

 PERCENT DISCREPANCY =          -0.01     PERCENT DISCREPANCY =          -0.02






         TIME SUMMARY AT END OF TIME STEP   51 IN STRESS PERIOD    2
                    SECONDS     MINUTES      HOURS       DAYS        YEARS
                    -----------------------------------------------------------
   TIME STEP LENGTH  86400.      1440.0      24.000      1.0000     2.73785E-03
 STRESS PERIOD TIME 4.40640E+06  73440.      1224.0      51.000     0.13963    
         TOTAL TIME 4.49280E+06  74880.      1248.0      52.000     0.14237    
1

 SOLVING FOR HEAD 

    ------------------------------------------------
       NWT REQUIRED            3 OUTER ITERATIONS 
       AND A TOTAL OF          3 INNER ITERATIONS.
    ------------------------------------------------

 OUTPUT CONTROL FOR STRESS PERIOD    2   TIME STEP   52
    SAVE HEAD FOR ALL LAYERS
    SAVE DRAWDOWN FOR ALL LAYERS
    SAVE BUDGET
    PRINT HEAD FOR ALL LAYERS
    PRINT BUDGET
1
              HEAD IN LAYER   1 AT END OF TIME STEP  52 IN STRESS PERIOD    2
  ---------------------------------------------------------------------------

            1           2           3           4           5           6           7           8           9          10
           11          12          13          14          15          16          17          18          19          20
 ........................................................................................................................
   1    0.000       0.000       0.000       0.000       0.000       7.203       7.192       7.216       7.233       7.243    
        7.247       7.261       7.418       7.824       7.424       7.281       7.289       7.305       0.000       0.000    
   2    0.000       0.000       0.000       0.000       7.220       7.217       7.166       7.229       7.245       7.254    
        7.256       7.266       7.390       7.827       7.393       7.264       7.286       7.307       0.000       0.000    
   3    0.000       0.000       0.000       0.000       7.261       7.359       7.392       7.383       7.360       7.361    
        7.360       7.354       7.377       7.830       7.350       7.205       7.284       7.315       0.000       0.000    
   4    0.000       0.000       0.000       7.347       7.440       7.825       7.820       7.824       7.829       7.828    
        7.827       7.814       7.518       7.835       7.364       7.280       7.311       7.336       0.000       0.000    
   5    0.000       0.000       7.681       7.774       7.835       7.819       7.477       7.401       7.379       7.381    
        7.444       7.825       7.834       7.812       7.368       7.314       7.340       7.367       7.390       0.000    
   6    0.000       7.836       7.837       7.832       7.718       7.413       7.306       7.288       7.282       7.279    
        7.297       7.379       7.393       7.384       7.318       7.334       7.365       7.386       7.396       0.000    
   7    0.000       7.386       7.392       7.389       7.352       7.305       7.293       7.290       7.281       7.265    
        7.283       7.303       7.311       7.314       7.310       7.349       7.383       7.403       0.000       0.000    
   8    0.000       7.291       7.304       7.310       7.310       7.310       7.310       7.305       7.286       7.218    
        7.288       7.311       7.319       7.315       7.266       7.357       7.399       7.424       0.000       0.000    
   9    0.000       0.000       7.316       7.320       7.323       7.326       7.327       7.322       7.311       7.296    
        7.314       7.329       7.339       7.343       7.346       7.385       7.419       7.450       7.483       7.500    
  10    0.000       0.000       7.329       7.331       7.334       7.336       7.336       7.332       7.326       7.321    
        7.329       7.340       7.350       7.359       7.372       7.400       7.430       7.460       7.486       7.500    

 HEAD WILL BE SAVED ON UNIT   51 AT END OF TIME STEP   52, STRESS PERIOD    2

 DRAWDOWN WILL BE SAVED ON UNIT   52 AT END OF TIME STEP   52, STRESS PERIOD    2
1
  VOLUMETRIC BUDGET FOR ENTIRE MODEL AT END OF TIME STEP   52, STRESS PERIOD   2
  ------------------------------------------------------------------------------

     CUMULATIVE VOLUMES      L**3       RATES FOR THIS TIME STEP      L**3/T
     ------------------                 ------------------------

           IN:                                      IN:
           ---                                      ---
             STORAGE =        1996.1870               STORAGE =          19.5951
       CONSTANT HEAD =           0.0000         CONSTANT HEAD =           0.0000
               WELLS =           0.0000                 WELLS =           0.0000
       RIVER LEAKAGE =      696897.3750         RIVER LEAKAGE =        3894.8735
            RECHARGE =       31616.5117              RECHARGE =         599.7326

            TOTAL IN =      730510.0625              TOTAL IN =        4514.2012

          OUT:                                     OUT:
          ----                                     ----
             STORAGE =      716914.5625               STORAGE =        4260.6787
       CONSTANT HEAD =           0.0000         CONSTANT HEAD =           0.0000
               WELLS =       13400.4082                 WELLS =         254.5907
       RIVER LEAKAGE =         268.8873         RIVER LEAKAGE =           0.0000
            RECHARGE =           0.0000              RECHARGE =           0.0000

           TOTAL OUT =      730583.8750             TOTAL OUT =        4515.2695

            IN - OUT =         -73.8125              IN - OUT =          -1.0684

 PERCENT DISCREPANCY =          -0.01     PERCENT DISCREPANCY =          -0.02






         TIME SUMMARY AT END OF TIME STEP   52 IN STRESS PERIOD    2
                    SECONDS     MINUTES      HOURS       DAYS        YEARS
                    -----------------------------------------------------------
   TIME STEP LENGTH  86400.      1440.0      24.000      1.0000     2.73785E-03
 STRESS PERIOD TIME 4.49280E+06  74880.      1248.0      52.000     0.14237    
         TOTAL TIME 4.57920E+06  76320.      1272.0      53.000     0.14511    
1

 SOLVING FOR HEAD 

    ------------------------------------------------
       NWT REQUIRED            3 OUTER ITERATIONS 
       AND A TOTAL OF          3 INNER ITERATIONS.
    ------------------------------------------------

 OUTPUT CONTROL FOR STRESS PERIOD    2   TIME STEP   53
    SAVE HEAD FOR ALL LAYERS
    SAVE DRAWDOWN FOR ALL LAYERS
    SAVE BUDGET
    PRINT HEAD FOR ALL LAYERS
    PRINT BUDGET
1
              HEAD IN LAYER   1 AT END OF TIME STEP  53 IN STRESS PERIOD    2
  ---------------------------------------------------------------------------

            1           2           3           4           5           6           7           8           9          10
           11          12          13          14          15          16          17          18          19          20
 ........................................................................................................................
   1    0.000       0.000       0.000       0.000       0.000       7.203       7.192       7.216       7.233       7.243    
        7.247       7.262       7.421       7.825       7.427       7.282       7.289       7.305       0.000       0.000    
   2    0.000       0.000       0.000       0.000       7.220       7.218       7.167       7.230       7.246       7.254    
        7.257       7.267       7.393       7.827       7.396       7.265       7.287       7.307       0.000       0.000    
   3    0.000       0.000       0.000       0.000       7.263       7.361       7.394       7.386       7.363       7.363    
        7.362       7.357       7.380       7.831       7.352       7.205       7.284       7.315       0.000       0.000    
   4    0.000       0.000       0.000       7.350       7.443       7.825       7.820       7.824       7.829       7.828    
        7.827       7.815       7.522       7.835       7.366       7.281       7.311       7.336       0.000       0.000    
   5    0.000       0.000       7.685       7.776       7.835       7.819       7.480       7.404       7.381       7.383    
        7.447       7.825       7.834       7.812       7.370       7.315       7.340       7.367       7.391       0.000    
   6    0.000       7.836       7.837       7.832       7.720       7.416       7.307       7.289       7.283       7.280    
        7.298       7.381       7.395       7.386       7.319       7.334       7.365       7.386       7.396       0.000    
   7    0.000       7.388       7.394       7.391       7.354       7.306       7.293       7.290       7.281       7.265    
        7.283       7.303       7.312       7.314       7.310       7.349       7.383       7.403       0.000       0.000    
   8    0.000       7.291       7.305       7.311       7.310       7.310       7.310       7.306       7.286       7.218    
        7.288       7.311       7.320       7.315       7.266       7.357       7.399       7.424       0.000       0.000    
   9    0.000       0.000       7.316       7.320       7.324       7.327       7.327       7.322       7.311       7.296    
        7.314       7.329       7.339       7.343       7.346       7.385       7.419       7.450       7.483       7.500    
  10    0.000       0.000       7.329       7.331       7.334       7.336       7.336       7.332       7.326       7.321    
        7.329       7.340       7.350       7.359       7.372       7.400       7.430       7.460       7.486       7.500    

 HEAD WILL BE SAVED ON UNIT   51 AT END OF TIME STEP   53, STRESS PERIOD    2

 DRAWDOWN WILL BE SAVED ON UNIT   52 AT END OF TIME STEP   53, STRESS PERIOD    2
1
  VOLUMETRIC BUDGET FOR ENTIRE MODEL AT END OF TIME STEP   53, STRESS PERIOD   2
  ------------------------------------------------------------------------------

     CUMULATIVE VOLUMES      L**3       RATES FOR THIS TIME STEP      L**3/T
     ------------------                 ------------------------

           IN:                                      IN:
           ---                                      ---
             STORAGE =        2015.4072               STORAGE =          19.2202
       CONSTANT HEAD =           0.0000         CONSTANT HEAD =           0.0000
               WELLS =           0.0000                 WELLS =           0.0000
       RIVER LEAKAGE =      700759.1250         RIVER LEAKAGE =        3861.7188
            RECHARGE =       32216.2441              RECHARGE =         599.7326

            TOTAL IN =      734990.8125              TOTAL IN =        4480.6714

          OUT:                                     OUT:
          ----                                     ----
             STORAGE =      721141.6875               STORAGE =        4227.1406
       CONSTANT HEAD =           0.0000         CONSTANT HEAD =           0.0000
               WELLS =       13654.9990                 WELLS =         254.5907
       RIVER LEAKAGE =         268.8873         RIVER LEAKAGE =           0.0000
            RECHARGE =           0.0000              RECHARGE =           0.0000

           TOTAL OUT =      735065.5625             TOTAL OUT =        4481.7314

            IN - OUT =         -74.7500              IN - OUT =          -1.0601

 PERCENT DISCREPANCY =          -0.01     PERCENT DISCREPANCY =          -0.02






         TIME SUMMARY AT END OF TIME STEP   53 IN STRESS PERIOD    2
                    SECONDS     MINUTES      HOURS       DAYS        YEARS
                    -----------------------------------------------------------
   TIME STEP LENGTH  86400.      1440.0      24.000      1.0000     2.73785E-03
 STRESS PERIOD TIME 4.57920E+06  76320.      1272.0      53.000     0.14511    
         TOTAL TIME 4.66560E+06  77760.      1296.0      54.000     0.14784    
1

 SOLVING FOR HEAD 

    ------------------------------------------------
       NWT REQUIRED            3 OUTER ITERATIONS 
       AND A TOTAL OF          3 INNER ITERATIONS.
    ------------------------------------------------

 OUTPUT CONTROL FOR STRESS PERIOD    2   TIME STEP   54
    SAVE HEAD FOR ALL LAYERS
    SAVE DRAWDOWN FOR ALL LAYERS
    SAVE BUDGET
    PRINT HEAD FOR ALL LAYERS
    PRINT BUDGET
1
              HEAD IN LAYER   1 AT END OF TIME STEP  54 IN STRESS PERIOD    2
  ---------------------------------------------------------------------------

            1           2           3           4           5           6           7           8           9          10
           11          12          13          14          15          16          17          18          19          20
 ........................................................................................................................
   1    0.000       0.000       0.000       0.000       0.000       7.204       7.192       7.216       7.233       7.243    
        7.247       7.263       7.424       7.825       7.430       7.282       7.290       7.305       0.000       0.000    
   2    0.000       0.000       0.000       0.000       7.220       7.219       7.167       7.231       7.246       7.255    
        7.258       7.268       7.396       7.827       7.398       7.265       7.287       7.307       0.000       0.000    
   3    0.000       0.000       0.000       0.000       7.264       7.364       7.397       7.388       7.365       7.365    
        7.364       7.359       7.383       7.831       7.354       7.205       7.284       7.315       0.000       0.000    
   4    0.000       0.000       0.000       7.353       7.446       7.825       7.821       7.824       7.829       7.828    
        7.827       7.815       7.526       7.835       7.368       7.281       7.311       7.336       0.000       0.000    
   5    0.000       0.000       7.690       7.777       7.835       7.819       7.483       7.406       7.383       7.386    
        7.450       7.825       7.835       7.812       7.371       7.315       7.340       7.367       7.391       0.000    
   6    0.000       7.837       7.837       7.832       7.722       7.419       7.309       7.290       7.284       7.280    
        7.299       7.382       7.397       7.388       7.320       7.334       7.365       7.386       7.396       0.000    
   7    0.000       7.390       7.396       7.393       7.356       7.307       7.294       7.290       7.281       7.265    
        7.283       7.304       7.313       7.315       7.310       7.349       7.383       7.403       0.000       0.000    
   8    0.000       7.292       7.306       7.311       7.311       7.310       7.310       7.306       7.286       7.218    
        7.288       7.311       7.320       7.315       7.266       7.357       7.399       7.424       0.000       0.000    
   9    0.000       0.000       7.317       7.320       7.324       7.327       7.327       7.322       7.311       7.296    
        7.314       7.329       7.339       7.343       7.346       7.385       7.419       7.450       7.483       7.500    
  10    0.000       0.000       7.329       7.331       7.334       7.336       7.336       7.332       7.326       7.321    
        7.329       7.340       7.350       7.359       7.372       7.400       7.430       7.460       7.486       7.500    

 HEAD WILL BE SAVED ON UNIT   51 AT END OF TIME STEP   54, STRESS PERIOD    2

 DRAWDOWN WILL BE SAVED ON UNIT   52 AT END OF TIME STEP   54, STRESS PERIOD    2
1
  VOLUMETRIC BUDGET FOR ENTIRE MODEL AT END OF TIME STEP   54, STRESS PERIOD   2
  ------------------------------------------------------------------------------

     CUMULATIVE VOLUMES      L**3       RATES FOR THIS TIME STEP      L**3/T
     ------------------                 ------------------------

           IN:                                      IN:
           ---                                      ---
             STORAGE =        2034.2521               STORAGE =          18.8449
       CONSTANT HEAD =           0.0000         CONSTANT HEAD =           0.0000
               WELLS =           0.0000                 WELLS =           0.0000
       RIVER LEAKAGE =      704588.5000         RIVER LEAKAGE =        3829.3474
            RECHARGE =       32815.9766              RECHARGE =         599.7326

            TOTAL IN =      739438.7500              TOTAL IN =        4447.9248

          OUT:                                     OUT:
          ----                                     ----
             STORAGE =      725336.0625               STORAGE =        4194.3857
       CONSTANT HEAD =           0.0000         CONSTANT HEAD =           0.0000
               WELLS =       13909.5898                 WELLS =         254.5907
       RIVER LEAKAGE =         268.8873         RIVER LEAKAGE =           0.0000
            RECHARGE =           0.0000              RECHARGE =           0.0000

           TOTAL OUT =      739514.5000             TOTAL OUT =        4448.9766

            IN - OUT =         -75.7500              IN - OUT =          -1.0518

 PERCENT DISCREPANCY =          -0.01     PERCENT DISCREPANCY =          -0.02






         TIME SUMMARY AT END OF TIME STEP   54 IN STRESS PERIOD    2
                    SECONDS     MINUTES      HOURS       DAYS        YEARS
                    -----------------------------------------------------------
   TIME STEP LENGTH  86400.      1440.0      24.000      1.0000     2.73785E-03
 STRESS PERIOD TIME 4.66560E+06  77760.      1296.0      54.000     0.14784    
         TOTAL TIME 4.75200E+06  79200.      1320.0      55.000     0.15058    
1

 SOLVING FOR HEAD 

    ------------------------------------------------
       NWT REQUIRED            3 OUTER ITERATIONS 
       AND A TOTAL OF          3 INNER ITERATIONS.
    ------------------------------------------------

 OUTPUT CONTROL FOR STRESS PERIOD    2   TIME STEP   55
    SAVE HEAD FOR ALL LAYERS
    SAVE DRAWDOWN FOR ALL LAYERS
    SAVE BUDGET
    PRINT HEAD FOR ALL LAYERS
    PRINT BUDGET
1
              HEAD IN LAYER   1 AT END OF TIME STEP  55 IN STRESS PERIOD    2
  ---------------------------------------------------------------------------

            1           2           3           4           5           6           7           8           9          10
           11          12          13          14          15          16          17          18          19          20
 ........................................................................................................................
   1    0.000       0.000       0.000       0.000       0.000       7.204       7.192       7.216       7.234       7.243    
        7.247       7.263       7.427       7.825       7.433       7.283       7.290       7.305       0.000       0.000    
   2    0.000       0.000       0.000       0.000       7.221       7.219       7.168       7.232       7.247       7.256    
        7.258       7.270       7.399       7.827       7.401       7.266       7.287       7.307       0.000       0.000    
   3    0.000       0.000       0.000       0.000       7.265       7.366       7.399       7.390       7.367       7.368    
        7.367       7.361       7.386       7.831       7.356       7.206       7.284       7.315       0.000       0.000    
   4    0.000       0.000       0.000       7.356       7.449       7.825       7.821       7.824       7.829       7.828    
        7.827       7.815       7.530       7.835       7.370       7.282       7.311       7.336       0.000       0.000    
   5    0.000       0.000       7.694       7.778       7.835       7.819       7.486       7.409       7.386       7.388    
        7.453       7.825       7.835       7.813       7.373       7.315       7.340       7.367       7.391       0.000    
   6    0.000       7.837       7.837       7.832       7.724       7.421       7.310       7.290       7.284       7.281    
        7.300       7.384       7.399       7.390       7.321       7.334       7.365       7.386       7.396       0.000    
   7    0.000       7.392       7.398       7.395       7.358       7.308       7.294       7.290       7.281       7.265    
        7.283       7.304       7.313       7.315       7.311       7.349       7.383       7.403       0.000       0.000    
   8    0.000       7.293       7.306       7.312       7.311       7.310       7.311       7.306       7.286       7.218    
        7.288       7.311       7.320       7.315       7.266       7.357       7.400       7.424       0.000       0.000    
   9    0.000       0.000       7.317       7.320       7.324       7.327       7.327       7.322       7.311       7.296    
        7.314       7.329       7.339       7.343       7.346       7.385       7.419       7.450       7.483       7.500    
  10    0.000       0.000       7.329       7.331       7.334       7.336       7.336       7.332       7.326       7.321    
        7.329       7.340       7.350       7.359       7.372       7.400       7.431       7.460       7.486       7.500    

 HEAD WILL BE SAVED ON UNIT   51 AT END OF TIME STEP   55, STRESS PERIOD    2

 DRAWDOWN WILL BE SAVED ON UNIT   52 AT END OF TIME STEP   55, STRESS PERIOD    2
1
  VOLUMETRIC BUDGET FOR ENTIRE MODEL AT END OF TIME STEP   55, STRESS PERIOD   2
  ------------------------------------------------------------------------------

     CUMULATIVE VOLUMES      L**3       RATES FOR THIS TIME STEP      L**3/T
     ------------------                 ------------------------

           IN:                                      IN:
           ---                                      ---
             STORAGE =        2052.7219               STORAGE =          18.4699
       CONSTANT HEAD =           0.0000         CONSTANT HEAD =           0.0000
               WELLS =           0.0000                 WELLS =           0.0000
       RIVER LEAKAGE =      708386.2500         RIVER LEAKAGE =        3797.7219
            RECHARGE =       33415.7109              RECHARGE =         599.7326

            TOTAL IN =      743854.6875              TOTAL IN =        4415.9243

          OUT:                                     OUT:
          ----                                     ----
             STORAGE =      729498.4375               STORAGE =        4162.3774
       CONSTANT HEAD =           0.0000         CONSTANT HEAD =           0.0000
               WELLS =       14164.1807                 WELLS =         254.5907
       RIVER LEAKAGE =         268.8873         RIVER LEAKAGE =           0.0000
            RECHARGE =           0.0000              RECHARGE =           0.0000

           TOTAL OUT =      743931.5000             TOTAL OUT =        4416.9683

            IN - OUT =         -76.8125              IN - OUT =          -1.0439

 PERCENT DISCREPANCY =          -0.01     PERCENT DISCREPANCY =          -0.02






         TIME SUMMARY AT END OF TIME STEP   55 IN STRESS PERIOD    2
                    SECONDS     MINUTES      HOURS       DAYS        YEARS
                    -----------------------------------------------------------
   TIME STEP LENGTH  86400.      1440.0      24.000      1.0000     2.73785E-03
 STRESS PERIOD TIME 4.75200E+06  79200.      1320.0      55.000     0.15058    
         TOTAL TIME 4.83840E+06  80640.      1344.0      56.000     0.15332    
1

 SOLVING FOR HEAD 

    ------------------------------------------------
       NWT REQUIRED            3 OUTER ITERATIONS 
       AND A TOTAL OF          3 INNER ITERATIONS.
    ------------------------------------------------

 OUTPUT CONTROL FOR STRESS PERIOD    2   TIME STEP   56
    SAVE HEAD FOR ALL LAYERS
    SAVE DRAWDOWN FOR ALL LAYERS
    SAVE BUDGET
    PRINT HEAD FOR ALL LAYERS
    PRINT BUDGET
1
              HEAD IN LAYER   1 AT END OF TIME STEP  56 IN STRESS PERIOD    2
  ---------------------------------------------------------------------------

            1           2           3           4           5           6           7           8           9          10
           11          12          13          14          15          16          17          18          19          20
 ........................................................................................................................
   1    0.000       0.000       0.000       0.000       0.000       7.204       7.193       7.216       7.234       7.244    
        7.247       7.264       7.429       7.825       7.436       7.284       7.290       7.305       0.000       0.000    
   2    0.000       0.000       0.000       0.000       7.221       7.220       7.169       7.233       7.248       7.256    
        7.259       7.271       7.401       7.828       7.403       7.267       7.287       7.307       0.000       0.000    
   3    0.000       0.000       0.000       0.000       7.267       7.368       7.402       7.393       7.369       7.370    
        7.369       7.364       7.389       7.831       7.358       7.206       7.284       7.315       0.000       0.000    
   4    0.000       0.000       0.000       7.359       7.452       7.826       7.821       7.824       7.829       7.828    
        7.827       7.815       7.534       7.835       7.372       7.282       7.311       7.336       0.000       0.000    
   5    0.000       0.000       7.698       7.780       7.835       7.820       7.490       7.411       7.388       7.390    
        7.456       7.825       7.835       7.813       7.375       7.316       7.340       7.367       7.391       0.000    
   6    0.000       7.837       7.837       7.832       7.726       7.424       7.312       7.291       7.285       7.282    
        7.302       7.386       7.401       7.392       7.321       7.334       7.365       7.386       7.396       0.000    
   7    0.000       7.395       7.400       7.397       7.360       7.309       7.294       7.290       7.281       7.265    
        7.284       7.305       7.314       7.316       7.311       7.349       7.383       7.403       0.000       0.000    
   8    0.000       7.294       7.307       7.312       7.312       7.310       7.311       7.306       7.286       7.217    
        7.288       7.311       7.320       7.315       7.266       7.357       7.400       7.424       0.000       0.000    
   9    0.000       0.000       7.317       7.320       7.324       7.327       7.327       7.322       7.311       7.296    
        7.314       7.329       7.339       7.344       7.346       7.385       7.419       7.450       7.483       7.500    
  10    0.000       0.000       7.329       7.331       7.334       7.336       7.336       7.332       7.326       7.321    
        7.329       7.340       7.350       7.359       7.372       7.400       7.431       7.460       7.486       7.500    

 HEAD WILL BE SAVED ON UNIT   51 AT END OF TIME STEP   56, STRESS PERIOD    2

 DRAWDOWN WILL BE SAVED ON UNIT   52 AT END OF TIME STEP   56, STRESS PERIOD    2
1
  VOLUMETRIC BUDGET FOR ENTIRE MODEL AT END OF TIME STEP   56, STRESS PERIOD   2
  ------------------------------------------------------------------------------

     CUMULATIVE VOLUMES      L**3       RATES FOR THIS TIME STEP      L**3/T
     ------------------                 ------------------------

           IN:                                      IN:
           ---                                      ---
             STORAGE =        2070.8171               STORAGE =          18.0953
       CONSTANT HEAD =           0.0000         CONSTANT HEAD =           0.0000
               WELLS =           0.0000                 WELLS =           0.0000
       RIVER LEAKAGE =      712153.0625         RIVER LEAKAGE =        3766.8247
            RECHARGE =       34015.4453              RECHARGE =         599.7326

            TOTAL IN =      748239.3125              TOTAL IN =        4384.6523

          OUT:                                     OUT:
          ----                                     ----
             STORAGE =      733629.5625               STORAGE =        4131.0977
       CONSTANT HEAD =           0.0000         CONSTANT HEAD =           0.0000
               WELLS =       14418.7715                 WELLS =         254.5907
       RIVER LEAKAGE =         268.8873         RIVER LEAKAGE =           0.0000
            RECHARGE =           0.0000              RECHARGE =           0.0000

           TOTAL OUT =      748317.1875             TOTAL OUT =        4385.6885

            IN - OUT =         -77.8750              IN - OUT =          -1.0361

 PERCENT DISCREPANCY =          -0.01     PERCENT DISCREPANCY =          -0.02






         TIME SUMMARY AT END OF TIME STEP   56 IN STRESS PERIOD    2
                    SECONDS     MINUTES      HOURS       DAYS        YEARS
                    -----------------------------------------------------------
   TIME STEP LENGTH  86400.      1440.0      24.000      1.0000     2.73785E-03
 STRESS PERIOD TIME 4.83840E+06  80640.      1344.0      56.000     0.15332    
         TOTAL TIME 4.92480E+06  82080.      1368.0      57.000     0.15606    
1

 SOLVING FOR HEAD 

    ------------------------------------------------
       NWT REQUIRED            3 OUTER ITERATIONS 
       AND A TOTAL OF          3 INNER ITERATIONS.
    ------------------------------------------------

 OUTPUT CONTROL FOR STRESS PERIOD    2   TIME STEP   57
    SAVE HEAD FOR ALL LAYERS
    SAVE DRAWDOWN FOR ALL LAYERS
    SAVE BUDGET
    PRINT HEAD FOR ALL LAYERS
    PRINT BUDGET
1
              HEAD IN LAYER   1 AT END OF TIME STEP  57 IN STRESS PERIOD    2
  ---------------------------------------------------------------------------

            1           2           3           4           5           6           7           8           9          10
           11          12          13          14          15          16          17          18          19          20
 ........................................................................................................................
   1    0.000       0.000       0.000       0.000       0.000       7.204       7.193       7.216       7.234       7.244    
        7.248       7.265       7.432       7.825       7.438       7.285       7.290       7.305       0.000       0.000    
   2    0.000       0.000       0.000       0.000       7.221       7.221       7.170       7.234       7.248       7.257    
        7.260       7.272       7.404       7.828       7.405       7.267       7.287       7.307       0.000       0.000    
   3    0.000       0.000       0.000       0.000       7.268       7.370       7.404       7.395       7.372       7.372    
        7.371       7.366       7.392       7.831       7.360       7.206       7.284       7.315       0.000       0.000    
   4    0.000       0.000       0.000       7.362       7.455       7.826       7.821       7.824       7.829       7.828    
        7.828       7.816       7.537       7.835       7.374       7.282       7.311       7.336       0.000       0.000    
   5    0.000       0.000       7.702       7.781       7.835       7.820       7.493       7.414       7.390       7.393    
        7.459       7.825       7.835       7.813       7.376       7.316       7.340       7.367       7.391       0.000    
   6    0.000       7.837       7.837       7.832       7.727       7.427       7.313       7.292       7.286       7.283    
        7.303       7.388       7.403       7.394       7.322       7.335       7.365       7.386       7.396       0.000    
   7    0.000       7.397       7.402       7.399       7.362       7.310       7.295       7.291       7.281       7.266    
        7.284       7.306       7.314       7.316       7.311       7.349       7.383       7.403       0.000       0.000    
   8    0.000       7.294       7.308       7.313       7.312       7.310       7.311       7.306       7.286       7.217    
        7.288       7.311       7.320       7.315       7.265       7.357       7.400       7.424       0.000       0.000    
   9    0.000       0.000       7.317       7.320       7.324       7.327       7.327       7.322       7.311       7.296    
        7.314       7.329       7.339       7.344       7.346       7.385       7.419       7.450       7.484       7.500    
  10    0.000       0.000       7.329       7.331       7.334       7.336       7.336       7.332       7.326       7.321    
        7.329       7.340       7.350       7.359       7.372       7.400       7.431       7.460       7.486       7.500    

 HEAD WILL BE SAVED ON UNIT   51 AT END OF TIME STEP   57, STRESS PERIOD    2

 DRAWDOWN WILL BE SAVED ON UNIT   52 AT END OF TIME STEP   57, STRESS PERIOD    2
1
  VOLUMETRIC BUDGET FOR ENTIRE MODEL AT END OF TIME STEP   57, STRESS PERIOD   2
  ------------------------------------------------------------------------------

     CUMULATIVE VOLUMES      L**3       RATES FOR THIS TIME STEP      L**3/T
     ------------------                 ------------------------

           IN:                                      IN:
           ---                                      ---
             STORAGE =        2088.5649               STORAGE =          17.7478
       CONSTANT HEAD =           0.0000         CONSTANT HEAD =           0.0000
               WELLS =           0.0000                 WELLS =           0.0000
       RIVER LEAKAGE =      715889.6875         RIVER LEAKAGE =        3736.6165
            RECHARGE =       34615.1797              RECHARGE =         599.7326

            TOTAL IN =      752593.4375              TOTAL IN =        4354.0967

          OUT:                                     OUT:
          ----                                     ----
             STORAGE =      737730.1250               STORAGE =        4100.5342
       CONSTANT HEAD =           0.0000         CONSTANT HEAD =           0.0000
               WELLS =       14673.3623                 WELLS =         254.5907
       RIVER LEAKAGE =         268.8873         RIVER LEAKAGE =           0.0000
            RECHARGE =           0.0000              RECHARGE =           0.0000

           TOTAL OUT =      752672.3750             TOTAL OUT =        4355.1250

            IN - OUT =         -78.9375              IN - OUT =          -1.0283

 PERCENT DISCREPANCY =          -0.01     PERCENT DISCREPANCY =          -0.02






         TIME SUMMARY AT END OF TIME STEP   57 IN STRESS PERIOD    2
                    SECONDS     MINUTES      HOURS       DAYS        YEARS
                    -----------------------------------------------------------
   TIME STEP LENGTH  86400.      1440.0      24.000      1.0000     2.73785E-03
 STRESS PERIOD TIME 4.92480E+06  82080.      1368.0      57.000     0.15606    
         TOTAL TIME 5.01120E+06  83520.      1392.0      58.000     0.15880    
1

 SOLVING FOR HEAD 

    ------------------------------------------------
       NWT REQUIRED            3 OUTER ITERATIONS 
       AND A TOTAL OF          3 INNER ITERATIONS.
    ------------------------------------------------

 OUTPUT CONTROL FOR STRESS PERIOD    2   TIME STEP   58
    SAVE HEAD FOR ALL LAYERS
    SAVE DRAWDOWN FOR ALL LAYERS
    SAVE BUDGET
    PRINT HEAD FOR ALL LAYERS
    PRINT BUDGET
1
              HEAD IN LAYER   1 AT END OF TIME STEP  58 IN STRESS PERIOD    2
  ---------------------------------------------------------------------------

            1           2           3           4           5           6           7           8           9          10
           11          12          13          14          15          16          17          18          19          20
 ........................................................................................................................
   1    0.000       0.000       0.000       0.000       0.000       7.204       7.193       7.217       7.234       7.244    
        7.248       7.266       7.435       7.825       7.441       7.286       7.290       7.305       0.000       0.000    
   2    0.000       0.000       0.000       0.000       7.222       7.222       7.171       7.235       7.249       7.258    
        7.261       7.273       7.406       7.828       7.408       7.268       7.287       7.307       0.000       0.000    
   3    0.000       0.000       0.000       0.000       7.270       7.372       7.406       7.398       7.374       7.374    
        7.373       7.368       7.395       7.831       7.362       7.207       7.284       7.315       0.000       0.000    
   4    0.000       0.000       0.000       7.365       7.458       7.826       7.821       7.824       7.830       7.828    
        7.828       7.816       7.541       7.835       7.375       7.283       7.311       7.336       0.000       0.000    
   5    0.000       0.000       7.706       7.782       7.836       7.820       7.496       7.416       7.392       7.395    
        7.462       7.825       7.835       7.813       7.378       7.316       7.340       7.367       7.391       0.000    
   6    0.000       7.837       7.838       7.832       7.729       7.429       7.315       7.293       7.286       7.283    
        7.304       7.390       7.405       7.395       7.323       7.335       7.365       7.386       7.397       0.000    
   7    0.000       7.399       7.404       7.401       7.364       7.311       7.295       7.291       7.282       7.266    
        7.284       7.306       7.315       7.317       7.311       7.349       7.383       7.403       0.000       0.000    
   8    0.000       7.295       7.308       7.314       7.313       7.311       7.311       7.306       7.286       7.217    
        7.288       7.311       7.320       7.316       7.265       7.357       7.400       7.424       0.000       0.000    
   9    0.000       0.000       7.317       7.320       7.324       7.327       7.327       7.322       7.311       7.296    
        7.314       7.329       7.339       7.344       7.346       7.385       7.419       7.450       7.484       7.500    
  10    0.000       0.000       7.329       7.331       7.334       7.336       7.336       7.332       7.326       7.321    
        7.329       7.340       7.350       7.359       7.372       7.400       7.431       7.460       7.486       7.500    

 HEAD WILL BE SAVED ON UNIT   51 AT END OF TIME STEP   58, STRESS PERIOD    2

 DRAWDOWN WILL BE SAVED ON UNIT   52 AT END OF TIME STEP   58, STRESS PERIOD    2
1
  VOLUMETRIC BUDGET FOR ENTIRE MODEL AT END OF TIME STEP   58, STRESS PERIOD   2
  ------------------------------------------------------------------------------

     CUMULATIVE VOLUMES      L**3       RATES FOR THIS TIME STEP      L**3/T
     ------------------                 ------------------------

           IN:                                      IN:
           ---                                      ---
             STORAGE =        2105.9807               STORAGE =          17.4158
       CONSTANT HEAD =           0.0000         CONSTANT HEAD =           0.0000
               WELLS =           0.0000                 WELLS =           0.0000
       RIVER LEAKAGE =      719596.7500         RIVER LEAKAGE =        3707.0562
            RECHARGE =       35214.9141              RECHARGE =         599.7326

            TOTAL IN =      756917.6875              TOTAL IN =        4324.2046

          OUT:                                     OUT:
          ----                                     ----
             STORAGE =      741800.7500               STORAGE =        4070.6340
       CONSTANT HEAD =           0.0000         CONSTANT HEAD =           0.0000
               WELLS =       14927.9531                 WELLS =         254.5907
       RIVER LEAKAGE =         268.8873         RIVER LEAKAGE =           0.0000
            RECHARGE =           0.0000              RECHARGE =           0.0000

           TOTAL OUT =      756997.5625             TOTAL OUT =        4325.2246

            IN - OUT =         -79.8750              IN - OUT =          -1.0200

 PERCENT DISCREPANCY =          -0.01     PERCENT DISCREPANCY =          -0.02






         TIME SUMMARY AT END OF TIME STEP   58 IN STRESS PERIOD    2
                    SECONDS     MINUTES      HOURS       DAYS        YEARS
                    -----------------------------------------------------------
   TIME STEP LENGTH  86400.      1440.0      24.000      1.0000     2.73785E-03
 STRESS PERIOD TIME 5.01120E+06  83520.      1392.0      58.000     0.15880    
         TOTAL TIME 5.09760E+06  84960.      1416.0      59.000     0.16153    
1

 SOLVING FOR HEAD 

    ------------------------------------------------
       NWT REQUIRED            3 OUTER ITERATIONS 
       AND A TOTAL OF          3 INNER ITERATIONS.
    ------------------------------------------------

 OUTPUT CONTROL FOR STRESS PERIOD    2   TIME STEP   59
    SAVE HEAD FOR ALL LAYERS
    SAVE DRAWDOWN FOR ALL LAYERS
    SAVE BUDGET
    PRINT HEAD FOR ALL LAYERS
    PRINT BUDGET
1
              HEAD IN LAYER   1 AT END OF TIME STEP  59 IN STRESS PERIOD    2
  ---------------------------------------------------------------------------

            1           2           3           4           5           6           7           8           9          10
           11          12          13          14          15          16          17          18          19          20
 ........................................................................................................................
   1    0.000       0.000       0.000       0.000       0.000       7.204       7.193       7.217       7.234       7.244    
        7.248       7.267       7.437       7.825       7.443       7.286       7.290       7.305       0.000       0.000    
   2    0.000       0.000       0.000       0.000       7.222       7.222       7.172       7.235       7.250       7.258    
        7.261       7.274       7.409       7.828       7.410       7.269       7.287       7.307       0.000       0.000    
   3    0.000       0.000       0.000       0.000       7.271       7.374       7.409       7.400       7.376       7.376    
        7.375       7.371       7.398       7.831       7.364       7.207       7.284       7.315       0.000       0.000    
   4    0.000       0.000       0.000       7.368       7.461       7.826       7.821       7.825       7.830       7.829    
        7.828       7.816       7.545       7.835       7.377       7.283       7.311       7.336       0.000       0.000    
   5    0.000       0.000       7.709       7.783       7.836       7.820       7.499       7.419       7.394       7.397    
        7.464       7.825       7.835       7.813       7.380       7.317       7.341       7.367       7.391       0.000    
   6    0.000       7.837       7.838       7.832       7.731       7.432       7.316       7.294       7.287       7.284    
        7.305       7.392       7.407       7.397       7.324       7.335       7.365       7.386       7.397       0.000    
   7    0.000       7.401       7.406       7.403       7.366       7.312       7.295       7.291       7.282       7.266    
        7.284       7.307       7.316       7.317       7.311       7.349       7.383       7.403       0.000       0.000    
   8    0.000       7.296       7.309       7.314       7.313       7.311       7.311       7.306       7.286       7.217    
        7.288       7.311       7.320       7.316       7.265       7.357       7.400       7.424       0.000       0.000    
   9    0.000       0.000       7.317       7.321       7.324       7.327       7.327       7.323       7.311       7.295    
        7.314       7.329       7.339       7.344       7.346       7.385       7.420       7.450       7.484       7.500    
  10    0.000       0.000       7.329       7.331       7.334       7.337       7.336       7.332       7.326       7.321    
        7.329       7.341       7.350       7.360       7.373       7.400       7.431       7.460       7.486       7.500    

 HEAD WILL BE SAVED ON UNIT   51 AT END OF TIME STEP   59, STRESS PERIOD    2

 DRAWDOWN WILL BE SAVED ON UNIT   52 AT END OF TIME STEP   59, STRESS PERIOD    2
1
  VOLUMETRIC BUDGET FOR ENTIRE MODEL AT END OF TIME STEP   59, STRESS PERIOD   2
  ------------------------------------------------------------------------------

     CUMULATIVE VOLUMES      L**3       RATES FOR THIS TIME STEP      L**3/T
     ------------------                 ------------------------

           IN:                                      IN:
           ---                                      ---
             STORAGE =        2123.0657               STORAGE =          17.0850
       CONSTANT HEAD =           0.0000         CONSTANT HEAD =           0.0000
               WELLS =           0.0000                 WELLS =           0.0000
       RIVER LEAKAGE =      723274.8750         RIVER LEAKAGE =        3678.1248
            RECHARGE =       35814.6484              RECHARGE =         599.7326

            TOTAL IN =      761212.5625              TOTAL IN =        4294.9424

          OUT:                                     OUT:
          ----                                     ----
             STORAGE =      745842.1250               STORAGE =        4041.3645
       CONSTANT HEAD =           0.0000         CONSTANT HEAD =           0.0000
               WELLS =       15182.5439                 WELLS =         254.5907
       RIVER LEAKAGE =         268.8873         RIVER LEAKAGE =           0.0000
            RECHARGE =           0.0000              RECHARGE =           0.0000

           TOTAL OUT =      761293.5625             TOTAL OUT =        4295.9551

            IN - OUT =         -81.0000              IN - OUT =          -1.0127

 PERCENT DISCREPANCY =          -0.01     PERCENT DISCREPANCY =          -0.02






         TIME SUMMARY AT END OF TIME STEP   59 IN STRESS PERIOD    2
                    SECONDS     MINUTES      HOURS       DAYS        YEARS
                    -----------------------------------------------------------
   TIME STEP LENGTH  86400.      1440.0      24.000      1.0000     2.73785E-03
 STRESS PERIOD TIME 5.09760E+06  84960.      1416.0      59.000     0.16153    
         TOTAL TIME 5.18400E+06  86400.      1440.0      60.000     0.16427    
1

 SOLVING FOR HEAD 

    ------------------------------------------------
       NWT REQUIRED            3 OUTER ITERATIONS 
       AND A TOTAL OF          3 INNER ITERATIONS.
    ------------------------------------------------

 OUTPUT CONTROL FOR STRESS PERIOD    2   TIME STEP   60
    SAVE HEAD FOR ALL LAYERS
    SAVE DRAWDOWN FOR ALL LAYERS
    SAVE BUDGET
    PRINT HEAD FOR ALL LAYERS
    PRINT BUDGET
1
              HEAD IN LAYER   1 AT END OF TIME STEP  60 IN STRESS PERIOD    2
  ---------------------------------------------------------------------------

            1           2           3           4           5           6           7           8           9          10
           11          12          13          14          15          16          17          18          19          20
 ........................................................................................................................
   1    0.000       0.000       0.000       0.000       0.000       7.204       7.193       7.217       7.234       7.244    
        7.248       7.268       7.440       7.825       7.446       7.287       7.290       7.305       0.000       0.000    
   2    0.000       0.000       0.000       0.000       7.222       7.223       7.172       7.236       7.251       7.259    
        7.262       7.276       7.412       7.828       7.413       7.269       7.287       7.307       0.000       0.000    
   3    0.000       0.000       0.000       0.000       7.273       7.376       7.411       7.402       7.378       7.378    
        7.377       7.373       7.401       7.831       7.366       7.207       7.284       7.315       0.000       0.000    
   4    0.000       0.000       0.000       7.371       7.464       7.826       7.822       7.825       7.830       7.829    
        7.828       7.816       7.548       7.835       7.379       7.284       7.311       7.336       0.000       0.000    
   5    0.000       0.000       7.713       7.785       7.836       7.820       7.502       7.421       7.396       7.400    
        7.467       7.825       7.835       7.813       7.381       7.317       7.341       7.367       7.391       0.000    
   6    0.000       7.837       7.838       7.832       7.732       7.435       7.318       7.295       7.288       7.285    
        7.306       7.393       7.409       7.399       7.325       7.335       7.365       7.387       7.397       0.000    
   7    0.000       7.403       7.408       7.405       7.368       7.313       7.296       7.291       7.282       7.266    
        7.285       7.307       7.316       7.318       7.311       7.349       7.383       7.403       0.000       0.000    
   8    0.000       7.297       7.310       7.315       7.313       7.311       7.311       7.306       7.286       7.217    
        7.288       7.312       7.320       7.316       7.265       7.357       7.400       7.424       0.000       0.000    
   9    0.000       0.000       7.317       7.321       7.324       7.327       7.327       7.323       7.311       7.295    
        7.314       7.329       7.339       7.344       7.346       7.385       7.420       7.450       7.484       7.500    
  10    0.000       0.000       7.329       7.331       7.334       7.337       7.336       7.332       7.326       7.321    
        7.329       7.341       7.350       7.360       7.373       7.400       7.431       7.460       7.486       7.500    

 HEAD WILL BE SAVED ON UNIT   51 AT END OF TIME STEP   60, STRESS PERIOD    2

 DRAWDOWN WILL BE SAVED ON UNIT   52 AT END OF TIME STEP   60, STRESS PERIOD    2
1
  VOLUMETRIC BUDGET FOR ENTIRE MODEL AT END OF TIME STEP   60, STRESS PERIOD   2
  ------------------------------------------------------------------------------

     CUMULATIVE VOLUMES      L**3       RATES FOR THIS TIME STEP      L**3/T
     ------------------                 ------------------------

           IN:                                      IN:
           ---                                      ---
             STORAGE =        2139.8210               STORAGE =          16.7555
       CONSTANT HEAD =           0.0000         CONSTANT HEAD =           0.0000
               WELLS =           0.0000                 WELLS =           0.0000
       RIVER LEAKAGE =      726924.6875         RIVER LEAKAGE =        3649.7996
            RECHARGE =       36414.3828              RECHARGE =         599.7326

            TOTAL IN =      765478.8750              TOTAL IN =        4266.2876

          OUT:                                     OUT:
          ----                                     ----
             STORAGE =      749854.8125               STORAGE =        4012.7024
       CONSTANT HEAD =           0.0000         CONSTANT HEAD =           0.0000
               WELLS =       15437.1348                 WELLS =         254.5907
       RIVER LEAKAGE =         268.8873         RIVER LEAKAGE =           0.0000
            RECHARGE =           0.0000              RECHARGE =           0.0000

           TOTAL OUT =      765560.8125             TOTAL OUT =        4267.2930

            IN - OUT =         -81.9375              IN - OUT =          -1.0054

 PERCENT DISCREPANCY =          -0.01     PERCENT DISCREPANCY =          -0.02






         TIME SUMMARY AT END OF TIME STEP   60 IN STRESS PERIOD    2
                    SECONDS     MINUTES      HOURS       DAYS        YEARS
                    -----------------------------------------------------------
   TIME STEP LENGTH  86400.      1440.0      24.000      1.0000     2.73785E-03
 STRESS PERIOD TIME 5.18400E+06  86400.      1440.0      60.000     0.16427    
         TOTAL TIME 5.27040E+06  87840.      1464.0      61.000     0.16701    
1

 SOLVING FOR HEAD 

    ------------------------------------------------
       NWT REQUIRED            3 OUTER ITERATIONS 
       AND A TOTAL OF          3 INNER ITERATIONS.
    ------------------------------------------------

 OUTPUT CONTROL FOR STRESS PERIOD    2   TIME STEP   61
    SAVE HEAD FOR ALL LAYERS
    SAVE DRAWDOWN FOR ALL LAYERS
    SAVE BUDGET
    PRINT HEAD FOR ALL LAYERS
    PRINT BUDGET
1
              HEAD IN LAYER   1 AT END OF TIME STEP  61 IN STRESS PERIOD    2
  ---------------------------------------------------------------------------

            1           2           3           4           5           6           7           8           9          10
           11          12          13          14          15          16          17          18          19          20
 ........................................................................................................................
   1    0.000       0.000       0.000       0.000       0.000       7.205       7.193       7.217       7.234       7.244    
        7.249       7.269       7.442       7.826       7.449       7.288       7.290       7.305       0.000       0.000    
   2    0.000       0.000       0.000       0.000       7.223       7.224       7.173       7.237       7.251       7.260    
        7.263       7.277       7.414       7.828       7.415       7.270       7.287       7.307       0.000       0.000    
   3    0.000       0.000       0.000       0.000       7.274       7.378       7.413       7.405       7.380       7.380    
        7.379       7.375       7.404       7.831       7.368       7.208       7.284       7.315       0.000       0.000    
   4    0.000       0.000       0.000       7.374       7.466       7.826       7.822       7.825       7.830       7.829    
        7.828       7.817       7.552       7.835       7.381       7.284       7.311       7.336       0.000       0.000    
   5    0.000       0.000       7.717       7.786       7.836       7.821       7.504       7.424       7.399       7.402    
        7.470       7.826       7.835       7.813       7.383       7.318       7.341       7.367       7.391       0.000    
   6    0.000       7.837       7.838       7.833       7.734       7.437       7.319       7.296       7.289       7.286    
        7.308       7.395       7.411       7.401       7.325       7.335       7.365       7.387       7.397       0.000    
   7    0.000       7.405       7.410       7.407       7.369       7.314       7.296       7.291       7.282       7.266    
        7.285       7.308       7.317       7.318       7.311       7.350       7.383       7.403       0.000       0.000    
   8    0.000       7.297       7.310       7.316       7.314       7.311       7.311       7.306       7.286       7.217    
        7.288       7.312       7.320       7.316       7.265       7.357       7.400       7.424       0.000       0.000    
   9    0.000       0.000       7.318       7.321       7.324       7.327       7.327       7.323       7.311       7.295    
        7.314       7.329       7.339       7.344       7.346       7.385       7.420       7.450       7.484       7.500    
  10    0.000       0.000       7.329       7.331       7.334       7.337       7.336       7.332       7.326       7.321    
        7.329       7.341       7.350       7.360       7.373       7.400       7.431       7.460       7.486       7.500    

 HEAD WILL BE SAVED ON UNIT   51 AT END OF TIME STEP   61, STRESS PERIOD    2

 DRAWDOWN WILL BE SAVED ON UNIT   52 AT END OF TIME STEP   61, STRESS PERIOD    2
1
  VOLUMETRIC BUDGET FOR ENTIRE MODEL AT END OF TIME STEP   61, STRESS PERIOD   2
  ------------------------------------------------------------------------------

     CUMULATIVE VOLUMES      L**3       RATES FOR THIS TIME STEP      L**3/T
     ------------------                 ------------------------

           IN:                                      IN:
           ---                                      ---
             STORAGE =        2156.2476               STORAGE =          16.4266
       CONSTANT HEAD =           0.0000         CONSTANT HEAD =           0.0000
               WELLS =           0.0000                 WELLS =           0.0000
       RIVER LEAKAGE =      730546.7500         RIVER LEAKAGE =        3622.0442
            RECHARGE =       37014.1172              RECHARGE =         599.7326

            TOTAL IN =      769717.1250              TOTAL IN =        4238.2031

          OUT:                                     OUT:
          ----                                     ----
             STORAGE =      753839.4375               STORAGE =        3984.6111
       CONSTANT HEAD =           0.0000         CONSTANT HEAD =           0.0000
               WELLS =       15691.7256                 WELLS =         254.5907
       RIVER LEAKAGE =         268.8873         RIVER LEAKAGE =           0.0000
            RECHARGE =           0.0000              RECHARGE =           0.0000

           TOTAL OUT =      769800.0625             TOTAL OUT =        4239.2017

            IN - OUT =         -82.9375              IN - OUT =          -0.9985

 PERCENT DISCREPANCY =          -0.01     PERCENT DISCREPANCY =          -0.02






         TIME SUMMARY AT END OF TIME STEP   61 IN STRESS PERIOD    2
                    SECONDS     MINUTES      HOURS       DAYS        YEARS
                    -----------------------------------------------------------
   TIME STEP LENGTH  86400.      1440.0      24.000      1.0000     2.73785E-03
 STRESS PERIOD TIME 5.27040E+06  87840.      1464.0      61.000     0.16701    
         TOTAL TIME 5.35680E+06  89280.      1488.0      62.000     0.16975    
1

 SOLVING FOR HEAD 

    ------------------------------------------------
       NWT REQUIRED            3 OUTER ITERATIONS 
       AND A TOTAL OF          3 INNER ITERATIONS.
    ------------------------------------------------

 OUTPUT CONTROL FOR STRESS PERIOD    2   TIME STEP   62
    SAVE HEAD FOR ALL LAYERS
    SAVE DRAWDOWN FOR ALL LAYERS
    SAVE BUDGET
    PRINT HEAD FOR ALL LAYERS
    PRINT BUDGET
1
              HEAD IN LAYER   1 AT END OF TIME STEP  62 IN STRESS PERIOD    2
  ---------------------------------------------------------------------------

            1           2           3           4           5           6           7           8           9          10
           11          12          13          14          15          16          17          18          19          20
 ........................................................................................................................
   1    0.000       0.000       0.000       0.000       0.000       7.205       7.193       7.217       7.235       7.244    
        7.249       7.270       7.445       7.826       7.451       7.289       7.291       7.305       0.000       0.000    
   2    0.000       0.000       0.000       0.000       7.223       7.224       7.174       7.238       7.252       7.260    
        7.264       7.278       7.417       7.828       7.417       7.270       7.287       7.307       0.000       0.000    
   3    0.000       0.000       0.000       0.000       7.276       7.380       7.416       7.407       7.382       7.382    
        7.381       7.377       7.407       7.831       7.370       7.208       7.284       7.315       0.000       0.000    
   4    0.000       0.000       0.000       7.377       7.469       7.826       7.822       7.825       7.830       7.829    
        7.828       7.817       7.555       7.835       7.383       7.285       7.311       7.336       0.000       0.000    
   5    0.000       0.000       7.720       7.787       7.836       7.821       7.507       7.426       7.401       7.404    
        7.472       7.826       7.835       7.814       7.384       7.318       7.341       7.367       7.391       0.000    
   6    0.000       7.837       7.838       7.833       7.735       7.440       7.321       7.297       7.289       7.286    
        7.309       7.397       7.413       7.402       7.326       7.335       7.365       7.387       7.397       0.000    
   7    0.000       7.407       7.412       7.409       7.371       7.315       7.296       7.291       7.282       7.266    
        7.285       7.308       7.318       7.319       7.311       7.350       7.383       7.403       0.000       0.000    
   8    0.000       7.298       7.311       7.316       7.314       7.312       7.311       7.306       7.286       7.216    
        7.288       7.312       7.321       7.316       7.265       7.357       7.400       7.424       0.000       0.000    
   9    0.000       0.000       7.318       7.321       7.324       7.327       7.327       7.323       7.311       7.295    
        7.314       7.329       7.339       7.344       7.346       7.385       7.420       7.450       7.484       7.500    
  10    0.000       0.000       7.329       7.331       7.334       7.337       7.336       7.333       7.326       7.321    
        7.330       7.341       7.350       7.360       7.373       7.400       7.431       7.460       7.486       7.500    

 HEAD WILL BE SAVED ON UNIT   51 AT END OF TIME STEP   62, STRESS PERIOD    2

 DRAWDOWN WILL BE SAVED ON UNIT   52 AT END OF TIME STEP   62, STRESS PERIOD    2
1
  VOLUMETRIC BUDGET FOR ENTIRE MODEL AT END OF TIME STEP   62, STRESS PERIOD   2
  ------------------------------------------------------------------------------

     CUMULATIVE VOLUMES      L**3       RATES FOR THIS TIME STEP      L**3/T
     ------------------                 ------------------------

           IN:                                      IN:
           ---                                      ---
             STORAGE =        2172.3467               STORAGE =          16.0991
       CONSTANT HEAD =           0.0000         CONSTANT HEAD =           0.0000
               WELLS =           0.0000                 WELLS =           0.0000
       RIVER LEAKAGE =      734141.5625         RIVER LEAKAGE =        3594.8403
            RECHARGE =       37613.8516              RECHARGE =         599.7326

            TOTAL IN =      773927.8125              TOTAL IN =        4210.6719

          OUT:                                     OUT:
          ----                                     ----
             STORAGE =      757796.5000               STORAGE =        3957.0728
       CONSTANT HEAD =           0.0000         CONSTANT HEAD =           0.0000
               WELLS =       15946.3164                 WELLS =         254.5907
       RIVER LEAKAGE =         268.8873         RIVER LEAKAGE =           0.0000
            RECHARGE =           0.0000              RECHARGE =           0.0000

           TOTAL OUT =      774011.6875             TOTAL OUT =        4211.6636

            IN - OUT =         -83.8750              IN - OUT =          -0.9917

 PERCENT DISCREPANCY =          -0.01     PERCENT DISCREPANCY =          -0.02






         TIME SUMMARY AT END OF TIME STEP   62 IN STRESS PERIOD    2
                    SECONDS     MINUTES      HOURS       DAYS        YEARS
                    -----------------------------------------------------------
   TIME STEP LENGTH  86400.      1440.0      24.000      1.0000     2.73785E-03
 STRESS PERIOD TIME 5.35680E+06  89280.      1488.0      62.000     0.16975    
         TOTAL TIME 5.44320E+06  90720.      1512.0      63.000     0.17248    
1

 SOLVING FOR HEAD 

    ------------------------------------------------
       NWT REQUIRED            3 OUTER ITERATIONS 
       AND A TOTAL OF          3 INNER ITERATIONS.
    ------------------------------------------------

 OUTPUT CONTROL FOR STRESS PERIOD    2   TIME STEP   63
    SAVE HEAD FOR ALL LAYERS
    SAVE DRAWDOWN FOR ALL LAYERS
    SAVE BUDGET
    PRINT HEAD FOR ALL LAYERS
    PRINT BUDGET
1
              HEAD IN LAYER   1 AT END OF TIME STEP  63 IN STRESS PERIOD    2
  ---------------------------------------------------------------------------

            1           2           3           4           5           6           7           8           9          10
           11          12          13          14          15          16          17          18          19          20
 ........................................................................................................................
   1    0.000       0.000       0.000       0.000       0.000       7.205       7.194       7.217       7.235       7.245    
        7.249       7.271       7.448       7.826       7.454       7.290       7.291       7.305       0.000       0.000    
   2    0.000       0.000       0.000       0.000       7.224       7.225       7.175       7.239       7.253       7.261    
        7.264       7.279       7.419       7.828       7.419       7.271       7.288       7.307       0.000       0.000    
   3    0.000       0.000       0.000       0.000       7.277       7.382       7.418       7.409       7.384       7.384    
        7.383       7.380       7.410       7.831       7.372       7.208       7.284       7.315       0.000       0.000    
   4    0.000       0.000       0.000       7.380       7.472       7.826       7.822       7.825       7.830       7.829    
        7.828       7.817       7.559       7.835       7.384       7.285       7.311       7.336       0.000       0.000    
   5    0.000       0.000       7.723       7.788       7.836       7.821       7.510       7.429       7.403       7.406    
        7.475       7.826       7.835       7.814       7.386       7.319       7.341       7.367       7.391       0.000    
   6    0.000       7.837       7.838       7.833       7.737       7.442       7.322       7.298       7.290       7.287    
        7.310       7.399       7.415       7.404       7.327       7.336       7.365       7.387       7.397       0.000    
   7    0.000       7.409       7.414       7.410       7.373       7.316       7.297       7.292       7.282       7.266    
        7.285       7.309       7.318       7.319       7.312       7.350       7.383       7.403       0.000       0.000    
   8    0.000       7.299       7.312       7.317       7.315       7.312       7.311       7.306       7.286       7.216    
        7.288       7.312       7.321       7.316       7.265       7.357       7.400       7.424       0.000       0.000    
   9    0.000       0.000       7.318       7.321       7.324       7.327       7.327       7.323       7.311       7.295    
        7.314       7.329       7.339       7.344       7.346       7.385       7.420       7.450       7.484       7.500    
  10    0.000       0.000       7.329       7.331       7.334       7.337       7.336       7.333       7.326       7.321    
        7.330       7.341       7.350       7.360       7.373       7.400       7.431       7.460       7.486       7.501    

 HEAD WILL BE SAVED ON UNIT   51 AT END OF TIME STEP   63, STRESS PERIOD    2

 DRAWDOWN WILL BE SAVED ON UNIT   52 AT END OF TIME STEP   63, STRESS PERIOD    2
1
  VOLUMETRIC BUDGET FOR ENTIRE MODEL AT END OF TIME STEP   63, STRESS PERIOD   2
  ------------------------------------------------------------------------------

     CUMULATIVE VOLUMES      L**3       RATES FOR THIS TIME STEP      L**3/T
     ------------------                 ------------------------

           IN:                                      IN:
           ---                                      ---
             STORAGE =        2188.1191               STORAGE =          15.7724
       CONSTANT HEAD =           0.0000         CONSTANT HEAD =           0.0000
               WELLS =           0.0000                 WELLS =           0.0000
       RIVER LEAKAGE =      737709.7500         RIVER LEAKAGE =        3568.1670
            RECHARGE =       38213.5859              RECHARGE =         599.7326

            TOTAL IN =      778111.4375              TOTAL IN =        4183.6719

          OUT:                                     OUT:
          ----                                     ----
             STORAGE =      761726.5625               STORAGE =        3930.0662
       CONSTANT HEAD =           0.0000         CONSTANT HEAD =           0.0000
               WELLS =       16200.9072                 WELLS =         254.5907
       RIVER LEAKAGE =         268.8873         RIVER LEAKAGE =           0.0000
            RECHARGE =           0.0000              RECHARGE =           0.0000

           TOTAL OUT =      778196.3750             TOTAL OUT =        4184.6567

            IN - OUT =         -84.9375              IN - OUT =          -0.9849

 PERCENT DISCREPANCY =          -0.01     PERCENT DISCREPANCY =          -0.02






         TIME SUMMARY AT END OF TIME STEP   63 IN STRESS PERIOD    2
                    SECONDS     MINUTES      HOURS       DAYS        YEARS
                    -----------------------------------------------------------
   TIME STEP LENGTH  86400.      1440.0      24.000      1.0000     2.73785E-03
 STRESS PERIOD TIME 5.44320E+06  90720.      1512.0      63.000     0.17248    
         TOTAL TIME 5.52960E+06  92160.      1536.0      64.000     0.17522    
1

 SOLVING FOR HEAD 

    ------------------------------------------------
       NWT REQUIRED            3 OUTER ITERATIONS 
       AND A TOTAL OF          3 INNER ITERATIONS.
    ------------------------------------------------

 OUTPUT CONTROL FOR STRESS PERIOD    2   TIME STEP   64
    SAVE HEAD FOR ALL LAYERS
    SAVE DRAWDOWN FOR ALL LAYERS
    SAVE BUDGET
    PRINT HEAD FOR ALL LAYERS
    PRINT BUDGET
1
              HEAD IN LAYER   1 AT END OF TIME STEP  64 IN STRESS PERIOD    2
  ---------------------------------------------------------------------------

            1           2           3           4           5           6           7           8           9          10
           11          12          13          14          15          16          17          18          19          20
 ........................................................................................................................
   1    0.000       0.000       0.000       0.000       0.000       7.205       7.194       7.218       7.235       7.245    
        7.249       7.272       7.450       7.826       7.456       7.290       7.291       7.305       0.000       0.000    
   2    0.000       0.000       0.000       0.000       7.224       7.226       7.176       7.240       7.253       7.262    
        7.265       7.281       7.422       7.828       7.422       7.272       7.288       7.307       0.000       0.000    
   3    0.000       0.000       0.000       0.000       7.279       7.384       7.420       7.411       7.387       7.386    
        7.385       7.382       7.413       7.831       7.373       7.209       7.284       7.315       0.000       0.000    
   4    0.000       0.000       0.000       7.383       7.474       7.826       7.822       7.825       7.830       7.829    
        7.828       7.817       7.562       7.835       7.386       7.286       7.312       7.336       0.000       0.000    
   5    0.000       0.000       7.727       7.789       7.836       7.821       7.513       7.431       7.405       7.408    
        7.477       7.826       7.835       7.814       7.387       7.319       7.341       7.367       7.391       0.000    
   6    0.000       7.837       7.838       7.833       7.738       7.445       7.324       7.299       7.291       7.288    
        7.311       7.400       7.417       7.406       7.328       7.336       7.365       7.387       7.397       0.000    
   7    0.000       7.411       7.416       7.412       7.375       7.317       7.297       7.292       7.282       7.266    
        7.286       7.310       7.319       7.320       7.312       7.350       7.383       7.403       0.000       0.000    
   8    0.000       7.300       7.313       7.318       7.315       7.312       7.311       7.306       7.286       7.216    
        7.288       7.312       7.321       7.316       7.264       7.357       7.400       7.424       0.000       0.000    
   9    0.000       0.000       7.318       7.321       7.325       7.327       7.327       7.323       7.312       7.295    
        7.314       7.329       7.339       7.344       7.346       7.385       7.420       7.450       7.484       7.500    
  10    0.000       0.000       7.329       7.332       7.335       7.337       7.336       7.333       7.326       7.321    
        7.330       7.341       7.351       7.360       7.373       7.400       7.431       7.460       7.486       7.501    

 HEAD WILL BE SAVED ON UNIT   51 AT END OF TIME STEP   64, STRESS PERIOD    2

 DRAWDOWN WILL BE SAVED ON UNIT   52 AT END OF TIME STEP   64, STRESS PERIOD    2
1
  VOLUMETRIC BUDGET FOR ENTIRE MODEL AT END OF TIME STEP   64, STRESS PERIOD   2
  ------------------------------------------------------------------------------

     CUMULATIVE VOLUMES      L**3       RATES FOR THIS TIME STEP      L**3/T
     ------------------                 ------------------------

           IN:                                      IN:
           ---                                      ---
             STORAGE =        2203.5659               STORAGE =          15.4468
       CONSTANT HEAD =           0.0000         CONSTANT HEAD =           0.0000
               WELLS =           0.0000                 WELLS =           0.0000
       RIVER LEAKAGE =      741251.7500         RIVER LEAKAGE =        3542.0020
            RECHARGE =       38813.3203              RECHARGE =         599.7326

            TOTAL IN =      782268.6250              TOTAL IN =        4157.1812

          OUT:                                     OUT:
          ----                                     ----
             STORAGE =      765630.1250               STORAGE =        3903.5688
       CONSTANT HEAD =           0.0000         CONSTANT HEAD =           0.0000
               WELLS =       16455.4980                 WELLS =         254.5907
       RIVER LEAKAGE =         268.8873         RIVER LEAKAGE =           0.0000
            RECHARGE =           0.0000              RECHARGE =           0.0000

           TOTAL OUT =      782354.5000             TOTAL OUT =        4158.1597

            IN - OUT =         -85.8750              IN - OUT =          -0.9785

 PERCENT DISCREPANCY =          -0.01     PERCENT DISCREPANCY =          -0.02






         TIME SUMMARY AT END OF TIME STEP   64 IN STRESS PERIOD    2
                    SECONDS     MINUTES      HOURS       DAYS        YEARS
                    -----------------------------------------------------------
   TIME STEP LENGTH  86400.      1440.0      24.000      1.0000     2.73785E-03
 STRESS PERIOD TIME 5.52960E+06  92160.      1536.0      64.000     0.17522    
         TOTAL TIME 5.61600E+06  93600.      1560.0      65.000     0.17796    
1

 SOLVING FOR HEAD 

    ------------------------------------------------
       NWT REQUIRED            3 OUTER ITERATIONS 
       AND A TOTAL OF          3 INNER ITERATIONS.
    ------------------------------------------------

 OUTPUT CONTROL FOR STRESS PERIOD    2   TIME STEP   65
    SAVE HEAD FOR ALL LAYERS
    SAVE DRAWDOWN FOR ALL LAYERS
    SAVE BUDGET
    PRINT HEAD FOR ALL LAYERS
    PRINT BUDGET
1
              HEAD IN LAYER   1 AT END OF TIME STEP  65 IN STRESS PERIOD    2
  ---------------------------------------------------------------------------

            1           2           3           4           5           6           7           8           9          10
           11          12          13          14          15          16          17          18          19          20
 ........................................................................................................................
   1    0.000       0.000       0.000       0.000       0.000       7.205       7.194       7.218       7.235       7.245    
        7.250       7.272       7.453       7.826       7.458       7.291       7.291       7.305       0.000       0.000    
   2    0.000       0.000       0.000       0.000       7.225       7.227       7.177       7.241       7.254       7.262    
        7.266       7.282       7.424       7.828       7.424       7.272       7.288       7.308       0.000       0.000    
   3    0.000       0.000       0.000       0.000       7.280       7.386       7.422       7.414       7.389       7.388    
        7.387       7.384       7.416       7.831       7.375       7.209       7.284       7.315       0.000       0.000    
   4    0.000       0.000       0.000       7.386       7.477       7.827       7.822       7.825       7.830       7.829    
        7.828       7.818       7.566       7.835       7.388       7.286       7.312       7.336       0.000       0.000    
   5    0.000       0.000       7.730       7.789       7.836       7.821       7.515       7.433       7.407       7.411    
        7.480       7.826       7.835       7.814       7.389       7.319       7.341       7.367       7.391       0.000    
   6    0.000       7.837       7.838       7.833       7.739       7.447       7.325       7.300       7.292       7.289    
        7.313       7.402       7.418       7.407       7.328       7.336       7.365       7.387       7.397       0.000    
   7    0.000       7.413       7.418       7.414       7.377       7.318       7.298       7.292       7.282       7.266    
        7.286       7.310       7.320       7.320       7.312       7.350       7.383       7.403       0.000       0.000    
   8    0.000       7.301       7.313       7.318       7.316       7.312       7.311       7.306       7.286       7.216    
        7.288       7.312       7.321       7.316       7.264       7.357       7.400       7.424       0.000       0.000    
   9    0.000       0.000       7.318       7.321       7.325       7.327       7.327       7.323       7.312       7.295    
        7.314       7.330       7.339       7.344       7.346       7.385       7.420       7.450       7.484       7.500    
  10    0.000       0.000       7.329       7.332       7.335       7.337       7.336       7.333       7.326       7.321    
        7.330       7.341       7.351       7.360       7.373       7.400       7.431       7.460       7.486       7.501    

 HEAD WILL BE SAVED ON UNIT   51 AT END OF TIME STEP   65, STRESS PERIOD    2

 DRAWDOWN WILL BE SAVED ON UNIT   52 AT END OF TIME STEP   65, STRESS PERIOD    2
1
  VOLUMETRIC BUDGET FOR ENTIRE MODEL AT END OF TIME STEP   65, STRESS PERIOD   2
  ------------------------------------------------------------------------------

     CUMULATIVE VOLUMES      L**3       RATES FOR THIS TIME STEP      L**3/T
     ------------------                 ------------------------

           IN:                                      IN:
           ---                                      ---
             STORAGE =        2218.6880               STORAGE =          15.1221
       CONSTANT HEAD =           0.0000         CONSTANT HEAD =           0.0000
               WELLS =           0.0000                 WELLS =           0.0000
       RIVER LEAKAGE =      744768.0625         RIVER LEAKAGE =        3516.3325
            RECHARGE =       39413.0547              RECHARGE =         599.7326

            TOTAL IN =      786399.8125              TOTAL IN =        4131.1870

          OUT:                                     OUT:
          ----                                     ----
             STORAGE =      769507.6875               STORAGE =        3877.5681
       CONSTANT HEAD =           0.0000         CONSTANT HEAD =           0.0000
               WELLS =       16710.0879                 WELLS =         254.5907
       RIVER LEAKAGE =         268.8873         RIVER LEAKAGE =           0.0000
            RECHARGE =           0.0000              RECHARGE =           0.0000

           TOTAL OUT =      786486.6250             TOTAL OUT =        4132.1587

            IN - OUT =         -86.8125              IN - OUT =          -0.9717

 PERCENT DISCREPANCY =          -0.01     PERCENT DISCREPANCY =          -0.02






         TIME SUMMARY AT END OF TIME STEP   65 IN STRESS PERIOD    2
                    SECONDS     MINUTES      HOURS       DAYS        YEARS
                    -----------------------------------------------------------
   TIME STEP LENGTH  86400.      1440.0      24.000      1.0000     2.73785E-03
 STRESS PERIOD TIME 5.61600E+06  93600.      1560.0      65.000     0.17796    
         TOTAL TIME 5.70240E+06  95040.      1584.0      66.000     0.18070    
1

 SOLVING FOR HEAD 

    ------------------------------------------------
       NWT REQUIRED            3 OUTER ITERATIONS 
       AND A TOTAL OF          3 INNER ITERATIONS.
    ------------------------------------------------

 OUTPUT CONTROL FOR STRESS PERIOD    2   TIME STEP   66
    SAVE HEAD FOR ALL LAYERS
    SAVE DRAWDOWN FOR ALL LAYERS
    SAVE BUDGET
    PRINT HEAD FOR ALL LAYERS
    PRINT BUDGET
1
              HEAD IN LAYER   1 AT END OF TIME STEP  66 IN STRESS PERIOD    2
  ---------------------------------------------------------------------------

            1           2           3           4           5           6           7           8           9          10
           11          12          13          14          15          16          17          18          19          20
 ........................................................................................................................
   1    0.000       0.000       0.000       0.000       0.000       7.205       7.194       7.218       7.235       7.245    
        7.250       7.273       7.455       7.826       7.461       7.292       7.291       7.306       0.000       0.000    
   2    0.000       0.000       0.000       0.000       7.225       7.227       7.178       7.242       7.255       7.263    
        7.267       7.283       7.426       7.828       7.426       7.273       7.288       7.308       0.000       0.000    
   3    0.000       0.000       0.000       0.000       7.282       7.388       7.424       7.416       7.391       7.390    
        7.389       7.386       7.419       7.831       7.377       7.210       7.284       7.315       0.000       0.000    
   4    0.000       0.000       0.000       7.389       7.479       7.827       7.822       7.825       7.830       7.829    
        7.828       7.818       7.569       7.836       7.390       7.287       7.312       7.336       0.000       0.000    
   5    0.000       0.000       7.733       7.790       7.836       7.821       7.518       7.436       7.409       7.413    
        7.482       7.826       7.835       7.814       7.390       7.320       7.341       7.367       7.391       0.000    
   6    0.000       7.837       7.838       7.833       7.740       7.449       7.327       7.300       7.292       7.290    
        7.314       7.404       7.420       7.409       7.329       7.336       7.365       7.387       7.397       0.000    
   7    0.000       7.415       7.420       7.416       7.378       7.319       7.298       7.292       7.283       7.266    
        7.286       7.311       7.320       7.321       7.312       7.350       7.383       7.403       0.000       0.000    
   8    0.000       7.302       7.314       7.319       7.316       7.312       7.311       7.306       7.286       7.216    
        7.288       7.312       7.321       7.316       7.264       7.357       7.400       7.424       0.000       0.000    
   9    0.000       0.000       7.318       7.322       7.325       7.327       7.327       7.323       7.312       7.295    
        7.314       7.330       7.339       7.344       7.346       7.385       7.420       7.450       7.484       7.500    
  10    0.000       0.000       7.329       7.332       7.335       7.337       7.336       7.333       7.326       7.321    
        7.330       7.341       7.351       7.360       7.373       7.400       7.431       7.460       7.486       7.501    

 HEAD WILL BE SAVED ON UNIT   51 AT END OF TIME STEP   66, STRESS PERIOD    2

 DRAWDOWN WILL BE SAVED ON UNIT   52 AT END OF TIME STEP   66, STRESS PERIOD    2
1
  VOLUMETRIC BUDGET FOR ENTIRE MODEL AT END OF TIME STEP   66, STRESS PERIOD   2
  ------------------------------------------------------------------------------

     CUMULATIVE VOLUMES      L**3       RATES FOR THIS TIME STEP      L**3/T
     ------------------                 ------------------------

           IN:                                      IN:
           ---                                      ---
             STORAGE =        2233.4861               STORAGE =          14.7982
       CONSTANT HEAD =           0.0000         CONSTANT HEAD =           0.0000
               WELLS =           0.0000                 WELLS =           0.0000
       RIVER LEAKAGE =      748259.1875         RIVER LEAKAGE =        3491.1436
            RECHARGE =       40012.7891              RECHARGE =         599.7326

            TOTAL IN =      790505.5000              TOTAL IN =        4105.6743

          OUT:                                     OUT:
          ----                                     ----
             STORAGE =      773359.7500               STORAGE =        3852.0488
       CONSTANT HEAD =           0.0000         CONSTANT HEAD =           0.0000
               WELLS =       16964.6777                 WELLS =         254.5907
       RIVER LEAKAGE =         268.8873         RIVER LEAKAGE =           0.0000
            RECHARGE =           0.0000              RECHARGE =           0.0000

           TOTAL OUT =      790593.3125             TOTAL OUT =        4106.6396

            IN - OUT =         -87.8125              IN - OUT =          -0.9653

 PERCENT DISCREPANCY =          -0.01     PERCENT DISCREPANCY =          -0.02






         TIME SUMMARY AT END OF TIME STEP   66 IN STRESS PERIOD    2
                    SECONDS     MINUTES      HOURS       DAYS        YEARS
                    -----------------------------------------------------------
   TIME STEP LENGTH  86400.      1440.0      24.000      1.0000     2.73785E-03
 STRESS PERIOD TIME 5.70240E+06  95040.      1584.0      66.000     0.18070    
         TOTAL TIME 5.78880E+06  96480.      1608.0      67.000     0.18344    
1

 SOLVING FOR HEAD 

    ------------------------------------------------
       NWT REQUIRED            3 OUTER ITERATIONS 
       AND A TOTAL OF          3 INNER ITERATIONS.
    ------------------------------------------------

 OUTPUT CONTROL FOR STRESS PERIOD    2   TIME STEP   67
    SAVE HEAD FOR ALL LAYERS
    SAVE DRAWDOWN FOR ALL LAYERS
    SAVE BUDGET
    PRINT HEAD FOR ALL LAYERS
    PRINT BUDGET
1
              HEAD IN LAYER   1 AT END OF TIME STEP  67 IN STRESS PERIOD    2
  ---------------------------------------------------------------------------

            1           2           3           4           5           6           7           8           9          10
           11          12          13          14          15          16          17          18          19          20
 ........................................................................................................................
   1    0.000       0.000       0.000       0.000       0.000       7.206       7.194       7.218       7.235       7.245    
        7.250       7.274       7.457       7.826       7.463       7.293       7.291       7.306       0.000       0.000    
   2    0.000       0.000       0.000       0.000       7.226       7.228       7.178       7.243       7.256       7.264    
        7.267       7.284       7.429       7.829       7.428       7.274       7.288       7.308       0.000       0.000    
   3    0.000       0.000       0.000       0.000       7.283       7.390       7.426       7.418       7.393       7.392    
        7.391       7.388       7.421       7.832       7.379       7.210       7.284       7.315       0.000       0.000    
   4    0.000       0.000       0.000       7.392       7.482       7.827       7.823       7.825       7.830       7.829    
        7.829       7.818       7.572       7.836       7.391       7.287       7.312       7.336       0.000       0.000    
   5    0.000       0.000       7.736       7.791       7.836       7.822       7.521       7.438       7.411       7.415    
        7.485       7.826       7.835       7.814       7.392       7.320       7.341       7.367       7.391       0.000    
   6    0.000       7.837       7.838       7.833       7.742       7.452       7.328       7.301       7.293       7.290    
        7.315       7.405       7.422       7.411       7.330       7.336       7.365       7.387       7.397       0.000    
   7    0.000       7.417       7.422       7.418       7.380       7.320       7.299       7.293       7.283       7.267    
        7.287       7.311       7.321       7.322       7.312       7.350       7.383       7.403       0.000       0.000    
   8    0.000       7.302       7.315       7.320       7.317       7.313       7.312       7.306       7.286       7.216    
        7.288       7.312       7.321       7.316       7.264       7.357       7.400       7.424       0.000       0.000    
   9    0.000       0.000       7.318       7.322       7.325       7.327       7.327       7.323       7.312       7.295    
        7.315       7.330       7.339       7.344       7.346       7.385       7.420       7.450       7.484       7.500    
  10    0.000       0.000       7.329       7.332       7.335       7.337       7.336       7.333       7.326       7.321    
        7.330       7.341       7.351       7.360       7.373       7.400       7.431       7.460       7.486       7.501    

 HEAD WILL BE SAVED ON UNIT   51 AT END OF TIME STEP   67, STRESS PERIOD    2

 DRAWDOWN WILL BE SAVED ON UNIT   52 AT END OF TIME STEP   67, STRESS PERIOD    2
1
  VOLUMETRIC BUDGET FOR ENTIRE MODEL AT END OF TIME STEP   67, STRESS PERIOD   2
  ------------------------------------------------------------------------------

     CUMULATIVE VOLUMES      L**3       RATES FOR THIS TIME STEP      L**3/T
     ------------------                 ------------------------

           IN:                                      IN:
           ---                                      ---
             STORAGE =        2247.9614               STORAGE =          14.4754
       CONSTANT HEAD =           0.0000         CONSTANT HEAD =           0.0000
               WELLS =           0.0000                 WELLS =           0.0000
       RIVER LEAKAGE =      751725.6250         RIVER LEAKAGE =        3466.4097
            RECHARGE =       40612.5234              RECHARGE =         599.7326

            TOTAL IN =      794586.0625              TOTAL IN =        4080.6177

          OUT:                                     OUT:
          ----                                     ----
             STORAGE =      777186.7500               STORAGE =        3826.9858
       CONSTANT HEAD =           0.0000         CONSTANT HEAD =           0.0000
               WELLS =       17219.2676                 WELLS =         254.5907
       RIVER LEAKAGE =         268.8873         RIVER LEAKAGE =           0.0000
            RECHARGE =           0.0000              RECHARGE =           0.0000

           TOTAL OUT =      794674.8750             TOTAL OUT =        4081.5764

            IN - OUT =         -88.8125              IN - OUT =          -0.9587

 PERCENT DISCREPANCY =          -0.01     PERCENT DISCREPANCY =          -0.02






         TIME SUMMARY AT END OF TIME STEP   67 IN STRESS PERIOD    2
                    SECONDS     MINUTES      HOURS       DAYS        YEARS
                    -----------------------------------------------------------
   TIME STEP LENGTH  86400.      1440.0      24.000      1.0000     2.73785E-03
 STRESS PERIOD TIME 5.78880E+06  96480.      1608.0      67.000     0.18344    
         TOTAL TIME 5.87520E+06  97920.      1632.0      68.000     0.18617    
1

 SOLVING FOR HEAD 

    ------------------------------------------------
       NWT REQUIRED            3 OUTER ITERATIONS 
       AND A TOTAL OF          3 INNER ITERATIONS.
    ------------------------------------------------

 OUTPUT CONTROL FOR STRESS PERIOD    2   TIME STEP   68
    SAVE HEAD FOR ALL LAYERS
    SAVE DRAWDOWN FOR ALL LAYERS
    SAVE BUDGET
    PRINT HEAD FOR ALL LAYERS
    PRINT BUDGET
1
              HEAD IN LAYER   1 AT END OF TIME STEP  68 IN STRESS PERIOD    2
  ---------------------------------------------------------------------------

            1           2           3           4           5           6           7           8           9          10
           11          12          13          14          15          16          17          18          19          20
 ........................................................................................................................
   1    0.000       0.000       0.000       0.000       0.000       7.206       7.195       7.218       7.236       7.246    
        7.251       7.275       7.460       7.826       7.465       7.294       7.292       7.306       0.000       0.000    
   2    0.000       0.000       0.000       0.000       7.226       7.229       7.179       7.244       7.256       7.265    
        7.268       7.286       7.431       7.829       7.430       7.274       7.288       7.308       0.000       0.000    
   3    0.000       0.000       0.000       0.000       7.285       7.392       7.428       7.420       7.395       7.394    
        7.393       7.391       7.424       7.832       7.381       7.211       7.285       7.315       0.000       0.000    
   4    0.000       0.000       0.000       7.395       7.485       7.827       7.823       7.826       7.830       7.829    
        7.829       7.818       7.575       7.836       7.393       7.288       7.312       7.336       0.000       0.000    
   5    0.000       0.000       7.739       7.792       7.836       7.822       7.523       7.440       7.413       7.417    
        7.487       7.826       7.836       7.814       7.393       7.321       7.341       7.367       7.391       0.000    
   6    0.000       7.837       7.838       7.833       7.743       7.454       7.330       7.302       7.294       7.291    
        7.316       7.407       7.424       7.412       7.331       7.336       7.365       7.387       7.397       0.000    
   7    0.000       7.419       7.424       7.420       7.382       7.321       7.299       7.293       7.283       7.267    
        7.287       7.312       7.322       7.322       7.312       7.350       7.383       7.403       0.000       0.000    
   8    0.000       7.303       7.315       7.320       7.317       7.313       7.312       7.306       7.286       7.216    
        7.288       7.312       7.321       7.316       7.264       7.357       7.400       7.424       0.000       0.000    
   9    0.000       0.000       7.319       7.322       7.325       7.327       7.327       7.323       7.312       7.295    
        7.315       7.330       7.339       7.344       7.346       7.385       7.420       7.450       7.484       7.500    
  10    0.000       0.000       7.329       7.332       7.335       7.337       7.336       7.333       7.326       7.321    
        7.330       7.341       7.351       7.360       7.373       7.400       7.431       7.460       7.486       7.501    

 HEAD WILL BE SAVED ON UNIT   51 AT END OF TIME STEP   68, STRESS PERIOD    2

 DRAWDOWN WILL BE SAVED ON UNIT   52 AT END OF TIME STEP   68, STRESS PERIOD    2
1
  VOLUMETRIC BUDGET FOR ENTIRE MODEL AT END OF TIME STEP   68, STRESS PERIOD   2
  ------------------------------------------------------------------------------

     CUMULATIVE VOLUMES      L**3       RATES FOR THIS TIME STEP      L**3/T
     ------------------                 ------------------------

           IN:                                      IN:
           ---                                      ---
             STORAGE =        2262.1150               STORAGE =          14.1536
       CONSTANT HEAD =           0.0000         CONSTANT HEAD =           0.0000
               WELLS =           0.0000                 WELLS =           0.0000
       RIVER LEAKAGE =      755167.7500         RIVER LEAKAGE =        3442.1218
            RECHARGE =       41212.2578              RECHARGE =         599.7326

            TOTAL IN =      798642.1250              TOTAL IN =        4056.0081

          OUT:                                     OUT:
          ----                                     ----
             STORAGE =      780989.1250               STORAGE =        3802.3699
       CONSTANT HEAD =           0.0000         CONSTANT HEAD =           0.0000
               WELLS =       17473.8574                 WELLS =         254.5907
       RIVER LEAKAGE =         268.8873         RIVER LEAKAGE =           0.0000
            RECHARGE =           0.0000              RECHARGE =           0.0000

           TOTAL OUT =      798731.8750             TOTAL OUT =        4056.9604

            IN - OUT =         -89.7500              IN - OUT =          -0.9524

 PERCENT DISCREPANCY =          -0.01     PERCENT DISCREPANCY =          -0.02






         TIME SUMMARY AT END OF TIME STEP   68 IN STRESS PERIOD    2
                    SECONDS     MINUTES      HOURS       DAYS        YEARS
                    -----------------------------------------------------------
   TIME STEP LENGTH  86400.      1440.0      24.000      1.0000     2.73785E-03
 STRESS PERIOD TIME 5.87520E+06  97920.      1632.0      68.000     0.18617    
         TOTAL TIME 5.96160E+06  99360.      1656.0      69.000     0.18891    
1

 SOLVING FOR HEAD 

    ------------------------------------------------
       NWT REQUIRED            3 OUTER ITERATIONS 
       AND A TOTAL OF          3 INNER ITERATIONS.
    ------------------------------------------------

 OUTPUT CONTROL FOR STRESS PERIOD    2   TIME STEP   69
    SAVE HEAD FOR ALL LAYERS
    SAVE DRAWDOWN FOR ALL LAYERS
    SAVE BUDGET
    PRINT HEAD FOR ALL LAYERS
    PRINT BUDGET
1
              HEAD IN LAYER   1 AT END OF TIME STEP  69 IN STRESS PERIOD    2
  ---------------------------------------------------------------------------

            1           2           3           4           5           6           7           8           9          10
           11          12          13          14          15          16          17          18          19          20
 ........................................................................................................................
   1    0.000       0.000       0.000       0.000       0.000       7.206       7.195       7.219       7.236       7.246    
        7.251       7.276       7.462       7.827       7.468       7.294       7.292       7.306       0.000       0.000    
   2    0.000       0.000       0.000       0.000       7.226       7.230       7.180       7.245       7.257       7.265    
        7.269       7.287       7.434       7.829       7.432       7.275       7.288       7.308       0.000       0.000    
   3    0.000       0.000       0.000       0.000       7.286       7.394       7.430       7.422       7.397       7.395    
        7.395       7.393       7.427       7.832       7.383       7.211       7.285       7.315       0.000       0.000    
   4    0.000       0.000       0.000       7.398       7.487       7.827       7.823       7.826       7.830       7.829    
        7.829       7.818       7.579       7.836       7.395       7.288       7.312       7.336       0.000       0.000    
   5    0.000       0.000       7.742       7.793       7.836       7.822       7.526       7.442       7.415       7.419    
        7.490       7.826       7.836       7.814       7.395       7.321       7.341       7.367       7.391       0.000    
   6    0.000       7.837       7.838       7.833       7.744       7.456       7.332       7.303       7.295       7.292    
        7.318       7.409       7.426       7.414       7.332       7.337       7.365       7.387       7.397       0.000    
   7    0.000       7.421       7.426       7.421       7.384       7.322       7.299       7.293       7.283       7.267    
        7.287       7.312       7.322       7.323       7.312       7.350       7.383       7.403       0.000       0.000    
   8    0.000       7.304       7.316       7.321       7.318       7.313       7.312       7.306       7.286       7.215    
        7.288       7.313       7.322       7.316       7.264       7.357       7.400       7.424       0.000       0.000    
   9    0.000       0.000       7.319       7.322       7.325       7.327       7.327       7.323       7.312       7.295    
        7.315       7.330       7.339       7.344       7.346       7.385       7.420       7.450       7.484       7.501    
  10    0.000       0.000       7.329       7.332       7.335       7.337       7.337       7.333       7.326       7.321    
        7.330       7.341       7.351       7.360       7.373       7.400       7.431       7.460       7.486       7.501    

 HEAD WILL BE SAVED ON UNIT   51 AT END OF TIME STEP   69, STRESS PERIOD    2

 DRAWDOWN WILL BE SAVED ON UNIT   52 AT END OF TIME STEP   69, STRESS PERIOD    2
1
  VOLUMETRIC BUDGET FOR ENTIRE MODEL AT END OF TIME STEP   69, STRESS PERIOD   2
  ------------------------------------------------------------------------------

     CUMULATIVE VOLUMES      L**3       RATES FOR THIS TIME STEP      L**3/T
     ------------------                 ------------------------

           IN:                                      IN:
           ---                                      ---
             STORAGE =        2275.9475               STORAGE =          13.8326
       CONSTANT HEAD =           0.0000         CONSTANT HEAD =           0.0000
               WELLS =           0.0000                 WELLS =           0.0000
       RIVER LEAKAGE =      758586.0000         RIVER LEAKAGE =        3418.2542
            RECHARGE =       41811.9922              RECHARGE =         599.7326

            TOTAL IN =      802673.9375              TOTAL IN =        4031.8193

          OUT:                                     OUT:
          ----                                     ----
             STORAGE =      784767.3125               STORAGE =        3778.1750
       CONSTANT HEAD =           0.0000         CONSTANT HEAD =           0.0000
               WELLS =       17728.4473                 WELLS =         254.5907
       RIVER LEAKAGE =         268.8873         RIVER LEAKAGE =           0.0000
            RECHARGE =           0.0000              RECHARGE =           0.0000

           TOTAL OUT =      802764.6250             TOTAL OUT =        4032.7656

            IN - OUT =         -90.6875              IN - OUT =          -0.9463

 PERCENT DISCREPANCY =          -0.01     PERCENT DISCREPANCY =          -0.02






         TIME SUMMARY AT END OF TIME STEP   69 IN STRESS PERIOD    2
                    SECONDS     MINUTES      HOURS       DAYS        YEARS
                    -----------------------------------------------------------
   TIME STEP LENGTH  86400.      1440.0      24.000      1.0000     2.73785E-03
 STRESS PERIOD TIME 5.96160E+06  99360.      1656.0      69.000     0.18891    
         TOTAL TIME 6.04800E+06 1.00800E+05  1680.0      70.000     0.19165    
1

 SOLVING FOR HEAD 

    ------------------------------------------------
       NWT REQUIRED            3 OUTER ITERATIONS 
       AND A TOTAL OF          3 INNER ITERATIONS.
    ------------------------------------------------

 OUTPUT CONTROL FOR STRESS PERIOD    2   TIME STEP   70
    SAVE HEAD FOR ALL LAYERS
    SAVE DRAWDOWN FOR ALL LAYERS
    SAVE BUDGET
    PRINT HEAD FOR ALL LAYERS
    PRINT BUDGET
1
              HEAD IN LAYER   1 AT END OF TIME STEP  70 IN STRESS PERIOD    2
  ---------------------------------------------------------------------------

            1           2           3           4           5           6           7           8           9          10
           11          12          13          14          15          16          17          18          19          20
 ........................................................................................................................
   1    0.000       0.000       0.000       0.000       0.000       7.206       7.195       7.219       7.236       7.246    
        7.251       7.277       7.464       7.827       7.470       7.295       7.292       7.306       0.000       0.000    
   2    0.000       0.000       0.000       0.000       7.227       7.230       7.181       7.245       7.258       7.266    
        7.270       7.288       7.436       7.829       7.435       7.276       7.288       7.308       0.000       0.000    
   3    0.000       0.000       0.000       0.000       7.288       7.396       7.432       7.424       7.399       7.397    
        7.397       7.395       7.430       7.832       7.385       7.211       7.285       7.315       0.000       0.000    
   4    0.000       0.000       0.000       7.401       7.489       7.827       7.823       7.826       7.830       7.829    
        7.829       7.819       7.582       7.836       7.396       7.288       7.312       7.336       0.000       0.000    
   5    0.000       0.000       7.744       7.794       7.837       7.822       7.528       7.445       7.417       7.421    
        7.492       7.826       7.836       7.815       7.396       7.322       7.341       7.367       7.391       0.000    
   6    0.000       7.837       7.838       7.833       7.745       7.459       7.333       7.304       7.295       7.293    
        7.319       7.410       7.427       7.415       7.332       7.337       7.365       7.387       7.397       0.000    
   7    0.000       7.423       7.428       7.423       7.385       7.323       7.300       7.293       7.283       7.267    
        7.288       7.313       7.323       7.323       7.313       7.350       7.383       7.403       0.000       0.000    
   8    0.000       7.305       7.317       7.322       7.319       7.313       7.312       7.306       7.286       7.215    
        7.288       7.313       7.322       7.316       7.264       7.357       7.400       7.424       0.000       0.000    
   9    0.000       0.000       7.319       7.322       7.325       7.327       7.327       7.323       7.312       7.295    
        7.315       7.330       7.339       7.344       7.345       7.385       7.420       7.450       7.484       7.501    
  10    0.000       0.000       7.330       7.332       7.335       7.337       7.337       7.333       7.326       7.321    
        7.330       7.341       7.351       7.360       7.373       7.400       7.431       7.460       7.486       7.501    

 HEAD WILL BE SAVED ON UNIT   51 AT END OF TIME STEP   70, STRESS PERIOD    2

 DRAWDOWN WILL BE SAVED ON UNIT   52 AT END OF TIME STEP   70, STRESS PERIOD    2
1
  VOLUMETRIC BUDGET FOR ENTIRE MODEL AT END OF TIME STEP   70, STRESS PERIOD   2
  ------------------------------------------------------------------------------

     CUMULATIVE VOLUMES      L**3       RATES FOR THIS TIME STEP      L**3/T
     ------------------                 ------------------------

           IN:                                      IN:
           ---                                      ---
             STORAGE =        2289.4602               STORAGE =          13.5126
       CONSTANT HEAD =           0.0000         CONSTANT HEAD =           0.0000
               WELLS =           0.0000                 WELLS =           0.0000
       RIVER LEAKAGE =      761980.8125         RIVER LEAKAGE =        3394.8013
            RECHARGE =       42411.7266              RECHARGE =         599.7326

            TOTAL IN =      806682.0000              TOTAL IN =        4008.0466

          OUT:                                     OUT:
          ----                                     ----
             STORAGE =      788521.6875               STORAGE =        3754.3965
       CONSTANT HEAD =           0.0000         CONSTANT HEAD =           0.0000
               WELLS =       17983.0371                 WELLS =         254.5907
       RIVER LEAKAGE =         268.8873         RIVER LEAKAGE =           0.0000
            RECHARGE =           0.0000              RECHARGE =           0.0000

           TOTAL OUT =      806773.6250             TOTAL OUT =        4008.9871

            IN - OUT =         -91.6250              IN - OUT =          -0.9404

 PERCENT DISCREPANCY =          -0.01     PERCENT DISCREPANCY =          -0.02






         TIME SUMMARY AT END OF TIME STEP   70 IN STRESS PERIOD    2
                    SECONDS     MINUTES      HOURS       DAYS        YEARS
                    -----------------------------------------------------------
   TIME STEP LENGTH  86400.      1440.0      24.000      1.0000     2.73785E-03
 STRESS PERIOD TIME 6.04800E+06 1.00800E+05  1680.0      70.000     0.19165    
         TOTAL TIME 6.13440E+06 1.02240E+05  1704.0      71.000     0.19439    
1

 SOLVING FOR HEAD 

    ------------------------------------------------
       NWT REQUIRED            3 OUTER ITERATIONS 
       AND A TOTAL OF          3 INNER ITERATIONS.
    ------------------------------------------------

 OUTPUT CONTROL FOR STRESS PERIOD    2   TIME STEP   71
    SAVE HEAD FOR ALL LAYERS
    SAVE DRAWDOWN FOR ALL LAYERS
    SAVE BUDGET
    PRINT HEAD FOR ALL LAYERS
    PRINT BUDGET
1
              HEAD IN LAYER   1 AT END OF TIME STEP  71 IN STRESS PERIOD    2
  ---------------------------------------------------------------------------

            1           2           3           4           5           6           7           8           9          10
           11          12          13          14          15          16          17          18          19          20
 ........................................................................................................................
   1    0.000       0.000       0.000       0.000       0.000       7.206       7.195       7.219       7.236       7.246    
        7.252       7.278       7.467       7.827       7.472       7.296       7.292       7.306       0.000       0.000    
   2    0.000       0.000       0.000       0.000       7.227       7.231       7.182       7.246       7.259       7.267    
        7.271       7.290       7.438       7.829       7.437       7.276       7.289       7.308       0.000       0.000    
   3    0.000       0.000       0.000       0.000       7.289       7.398       7.434       7.426       7.400       7.399    
        7.398       7.397       7.433       7.832       7.386       7.212       7.285       7.315       0.000       0.000    
   4    0.000       0.000       0.000       7.403       7.492       7.827       7.823       7.826       7.830       7.829    
        7.829       7.819       7.585       7.836       7.398       7.289       7.312       7.336       0.000       0.000    
   5    0.000       0.000       7.747       7.794       7.837       7.822       7.531       7.447       7.419       7.423    
        7.494       7.827       7.836       7.815       7.397       7.322       7.341       7.367       7.391       0.000    
   6    0.000       7.837       7.838       7.833       7.746       7.461       7.335       7.305       7.296       7.294    
        7.320       7.412       7.429       7.417       7.333       7.337       7.366       7.387       7.397       0.000    
   7    0.000       7.425       7.429       7.425       7.387       7.324       7.300       7.293       7.283       7.267    
        7.288       7.314       7.323       7.324       7.313       7.350       7.383       7.403       0.000       0.000    
   8    0.000       7.306       7.318       7.322       7.319       7.314       7.312       7.306       7.286       7.215    
        7.288       7.313       7.322       7.316       7.263       7.357       7.400       7.424       0.000       0.000    
   9    0.000       0.000       7.319       7.322       7.325       7.327       7.328       7.323       7.312       7.295    
        7.315       7.330       7.339       7.344       7.345       7.385       7.420       7.450       7.484       7.501    
  10    0.000       0.000       7.330       7.332       7.335       7.337       7.337       7.333       7.326       7.321    
        7.330       7.341       7.351       7.360       7.373       7.400       7.431       7.460       7.486       7.501    

 HEAD WILL BE SAVED ON UNIT   51 AT END OF TIME STEP   71, STRESS PERIOD    2

 DRAWDOWN WILL BE SAVED ON UNIT   52 AT END OF TIME STEP   71, STRESS PERIOD    2
1
  VOLUMETRIC BUDGET FOR ENTIRE MODEL AT END OF TIME STEP   71, STRESS PERIOD   2
  ------------------------------------------------------------------------------

     CUMULATIVE VOLUMES      L**3       RATES FOR THIS TIME STEP      L**3/T
     ------------------                 ------------------------

           IN:                                      IN:
           ---                                      ---
             STORAGE =        2302.6536               STORAGE =          13.1933
       CONSTANT HEAD =           0.0000         CONSTANT HEAD =           0.0000
               WELLS =           0.0000                 WELLS =           0.0000
       RIVER LEAKAGE =      765352.5625         RIVER LEAKAGE =        3371.7651
            RECHARGE =       43011.4609              RECHARGE =         599.7326

            TOTAL IN =      810666.6250              TOTAL IN =        3984.6912

          OUT:                                     OUT:
          ----                                     ----
             STORAGE =      792252.7500               STORAGE =        3731.0352
       CONSTANT HEAD =           0.0000         CONSTANT HEAD =           0.0000
               WELLS =       18237.6270                 WELLS =         254.5907
       RIVER LEAKAGE =         268.8873         RIVER LEAKAGE =           0.0000
            RECHARGE =           0.0000              RECHARGE =           0.0000

           TOTAL OUT =      810759.2500             TOTAL OUT =        3985.6257

            IN - OUT =         -92.6250              IN - OUT =          -0.9346

 PERCENT DISCREPANCY =          -0.01     PERCENT DISCREPANCY =          -0.02






         TIME SUMMARY AT END OF TIME STEP   71 IN STRESS PERIOD    2
                    SECONDS     MINUTES      HOURS       DAYS        YEARS
                    -----------------------------------------------------------
   TIME STEP LENGTH  86400.      1440.0      24.000      1.0000     2.73785E-03
 STRESS PERIOD TIME 6.13440E+06 1.02240E+05  1704.0      71.000     0.19439    
         TOTAL TIME 6.22080E+06 1.03680E+05  1728.0      72.000     0.19713    
1

 SOLVING FOR HEAD 

    ------------------------------------------------
       NWT REQUIRED            3 OUTER ITERATIONS 
       AND A TOTAL OF          3 INNER ITERATIONS.
    ------------------------------------------------

 OUTPUT CONTROL FOR STRESS PERIOD    2   TIME STEP   72
    SAVE HEAD FOR ALL LAYERS
    SAVE DRAWDOWN FOR ALL LAYERS
    SAVE BUDGET
    PRINT HEAD FOR ALL LAYERS
    PRINT BUDGET
1
              HEAD IN LAYER   1 AT END OF TIME STEP  72 IN STRESS PERIOD    2
  ---------------------------------------------------------------------------

            1           2           3           4           5           6           7           8           9          10
           11          12          13          14          15          16          17          18          19          20
 ........................................................................................................................
   1    0.000       0.000       0.000       0.000       0.000       7.207       7.195       7.219       7.236       7.246    
        7.252       7.279       7.469       7.827       7.475       7.297       7.292       7.306       0.000       0.000    
   2    0.000       0.000       0.000       0.000       7.228       7.232       7.183       7.247       7.260       7.267    
        7.271       7.291       7.441       7.829       7.439       7.277       7.289       7.308       0.000       0.000    
   3    0.000       0.000       0.000       0.000       7.291       7.399       7.436       7.428       7.402       7.401    
        7.400       7.399       7.436       7.832       7.388       7.212       7.285       7.315       0.000       0.000    
   4    0.000       0.000       0.000       7.406       7.494       7.827       7.823       7.826       7.830       7.829    
        7.829       7.819       7.588       7.836       7.400       7.289       7.312       7.336       0.000       0.000    
   5    0.000       0.000       7.750       7.795       7.837       7.822       7.533       7.449       7.421       7.425    
        7.497       7.827       7.836       7.815       7.399       7.322       7.342       7.367       7.391       0.000    
   6    0.000       7.837       7.838       7.833       7.747       7.463       7.336       7.306       7.297       7.295    
        7.321       7.413       7.431       7.418       7.334       7.337       7.366       7.387       7.397       0.000    
   7    0.000       7.426       7.431       7.427       7.389       7.325       7.301       7.294       7.284       7.267    
        7.288       7.314       7.324       7.324       7.313       7.350       7.383       7.403       0.000       0.000    
   8    0.000       7.307       7.318       7.323       7.320       7.314       7.312       7.306       7.286       7.215    
        7.288       7.313       7.322       7.316       7.263       7.357       7.400       7.424       0.000       0.000    
   9    0.000       0.000       7.319       7.322       7.325       7.328       7.328       7.323       7.312       7.295    
        7.315       7.330       7.339       7.344       7.345       7.385       7.420       7.450       7.484       7.501    
  10    0.000       0.000       7.330       7.332       7.335       7.337       7.337       7.333       7.326       7.321    
        7.330       7.341       7.351       7.360       7.373       7.400       7.431       7.460       7.486       7.501    

 HEAD WILL BE SAVED ON UNIT   51 AT END OF TIME STEP   72, STRESS PERIOD    2

 DRAWDOWN WILL BE SAVED ON UNIT   52 AT END OF TIME STEP   72, STRESS PERIOD    2
1
  VOLUMETRIC BUDGET FOR ENTIRE MODEL AT END OF TIME STEP   72, STRESS PERIOD   2
  ------------------------------------------------------------------------------

     CUMULATIVE VOLUMES      L**3       RATES FOR THIS TIME STEP      L**3/T
     ------------------                 ------------------------

           IN:                                      IN:
           ---                                      ---
             STORAGE =        2315.5278               STORAGE =          12.8744
       CONSTANT HEAD =           0.0000         CONSTANT HEAD =           0.0000
               WELLS =           0.0000                 WELLS =           0.0000
       RIVER LEAKAGE =      768701.6875         RIVER LEAKAGE =        3349.1057
            RECHARGE =       43611.1953              RECHARGE =         599.7326

            TOTAL IN =      814628.3750              TOTAL IN =        3961.7126

          OUT:                                     OUT:
          ----                                     ----
             STORAGE =      795960.8125               STORAGE =        3708.0510
       CONSTANT HEAD =           0.0000         CONSTANT HEAD =           0.0000
               WELLS =       18492.2168                 WELLS =         254.5907
       RIVER LEAKAGE =         268.8873         RIVER LEAKAGE =           0.0000
            RECHARGE =           0.0000              RECHARGE =           0.0000

           TOTAL OUT =      814721.8750             TOTAL OUT =        3962.6416

            IN - OUT =         -93.5000              IN - OUT =          -0.9290

 PERCENT DISCREPANCY =          -0.01     PERCENT DISCREPANCY =          -0.02






         TIME SUMMARY AT END OF TIME STEP   72 IN STRESS PERIOD    2
                    SECONDS     MINUTES      HOURS       DAYS        YEARS
                    -----------------------------------------------------------
   TIME STEP LENGTH  86400.      1440.0      24.000      1.0000     2.73785E-03
 STRESS PERIOD TIME 6.22080E+06 1.03680E+05  1728.0      72.000     0.19713    
         TOTAL TIME 6.30720E+06 1.05120E+05  1752.0      73.000     0.19986    
1

 SOLVING FOR HEAD 

    ------------------------------------------------
       NWT REQUIRED            3 OUTER ITERATIONS 
       AND A TOTAL OF          3 INNER ITERATIONS.
    ------------------------------------------------

 OUTPUT CONTROL FOR STRESS PERIOD    2   TIME STEP   73
    SAVE HEAD FOR ALL LAYERS
    SAVE DRAWDOWN FOR ALL LAYERS
    SAVE BUDGET
    PRINT HEAD FOR ALL LAYERS
    PRINT BUDGET
1
              HEAD IN LAYER   1 AT END OF TIME STEP  73 IN STRESS PERIOD    2
  ---------------------------------------------------------------------------

            1           2           3           4           5           6           7           8           9          10
           11          12          13          14          15          16          17          18          19          20
 ........................................................................................................................
   1    0.000       0.000       0.000       0.000       0.000       7.207       7.195       7.220       7.237       7.247    
        7.252       7.280       7.471       7.827       7.477       7.298       7.292       7.306       0.000       0.000    
   2    0.000       0.000       0.000       0.000       7.228       7.233       7.184       7.248       7.260       7.268    
        7.272       7.292       7.443       7.829       7.441       7.278       7.289       7.308       0.000       0.000    
   3    0.000       0.000       0.000       0.000       7.293       7.401       7.438       7.430       7.404       7.403    
        7.402       7.401       7.438       7.832       7.390       7.213       7.285       7.315       0.000       0.000    
   4    0.000       0.000       0.000       7.409       7.497       7.827       7.823       7.826       7.831       7.830    
        7.829       7.819       7.591       7.836       7.401       7.290       7.312       7.336       0.000       0.000    
   5    0.000       0.000       7.752       7.796       7.837       7.823       7.536       7.451       7.423       7.427    
        7.499       7.827       7.836       7.815       7.400       7.323       7.342       7.367       7.391       0.000    
   6    0.000       7.837       7.838       7.834       7.748       7.465       7.338       7.307       7.298       7.296    
        7.323       7.415       7.432       7.420       7.335       7.337       7.366       7.387       7.397       0.000    
   7    0.000       7.428       7.433       7.428       7.391       7.326       7.301       7.294       7.284       7.267    
        7.288       7.315       7.325       7.325       7.313       7.350       7.383       7.404       0.000       0.000    
   8    0.000       7.308       7.319       7.324       7.320       7.314       7.312       7.306       7.286       7.215    
        7.288       7.313       7.322       7.316       7.263       7.357       7.400       7.425       0.000       0.000    
   9    0.000       0.000       7.319       7.323       7.326       7.328       7.328       7.323       7.312       7.295    
        7.315       7.330       7.339       7.344       7.345       7.385       7.420       7.450       7.484       7.501    
  10    0.000       0.000       7.330       7.332       7.335       7.337       7.337       7.333       7.326       7.321    
        7.330       7.341       7.351       7.360       7.373       7.400       7.431       7.460       7.486       7.501    

 HEAD WILL BE SAVED ON UNIT   51 AT END OF TIME STEP   73, STRESS PERIOD    2

 DRAWDOWN WILL BE SAVED ON UNIT   52 AT END OF TIME STEP   73, STRESS PERIOD    2
1
  VOLUMETRIC BUDGET FOR ENTIRE MODEL AT END OF TIME STEP   73, STRESS PERIOD   2
  ------------------------------------------------------------------------------

     CUMULATIVE VOLUMES      L**3       RATES FOR THIS TIME STEP      L**3/T
     ------------------                 ------------------------

           IN:                                      IN:
           ---                                      ---
             STORAGE =        2328.0845               STORAGE =          12.5566
       CONSTANT HEAD =           0.0000         CONSTANT HEAD =           0.0000
               WELLS =           0.0000                 WELLS =           0.0000
       RIVER LEAKAGE =      772028.5000         RIVER LEAKAGE =        3326.8179
            RECHARGE =       44210.9297              RECHARGE =         599.7326

            TOTAL IN =      818567.5000              TOTAL IN =        3939.1072

          OUT:                                     OUT:
          ----                                     ----
             STORAGE =      799646.2500               STORAGE =        3685.4397
       CONSTANT HEAD =           0.0000         CONSTANT HEAD =           0.0000
               WELLS =       18746.8066                 WELLS =         254.5907
       RIVER LEAKAGE =         268.8873         RIVER LEAKAGE =           0.0000
            RECHARGE =           0.0000              RECHARGE =           0.0000

           TOTAL OUT =      818661.9375             TOTAL OUT =        3940.0303

            IN - OUT =         -94.4375              IN - OUT =          -0.9231

 PERCENT DISCREPANCY =          -0.01     PERCENT DISCREPANCY =          -0.02






         TIME SUMMARY AT END OF TIME STEP   73 IN STRESS PERIOD    2
                    SECONDS     MINUTES      HOURS       DAYS        YEARS
                    -----------------------------------------------------------
   TIME STEP LENGTH  86400.      1440.0      24.000      1.0000     2.73785E-03
 STRESS PERIOD TIME 6.30720E+06 1.05120E+05  1752.0      73.000     0.19986    
         TOTAL TIME 6.39360E+06 1.06560E+05  1776.0      74.000     0.20260    
1

 SOLVING FOR HEAD 

    ------------------------------------------------
       NWT REQUIRED            3 OUTER ITERATIONS 
       AND A TOTAL OF          3 INNER ITERATIONS.
    ------------------------------------------------

 OUTPUT CONTROL FOR STRESS PERIOD    2   TIME STEP   74
    SAVE HEAD FOR ALL LAYERS
    SAVE DRAWDOWN FOR ALL LAYERS
    SAVE BUDGET
    PRINT HEAD FOR ALL LAYERS
    PRINT BUDGET
1
              HEAD IN LAYER   1 AT END OF TIME STEP  74 IN STRESS PERIOD    2
  ---------------------------------------------------------------------------

            1           2           3           4           5           6           7           8           9          10
           11          12          13          14          15          16          17          18          19          20
 ........................................................................................................................
   1    0.000       0.000       0.000       0.000       0.000       7.207       7.196       7.220       7.237       7.247    
        7.253       7.281       7.473       7.827       7.479       7.299       7.293       7.306       0.000       0.000    
   2    0.000       0.000       0.000       0.000       7.229       7.233       7.185       7.249       7.261       7.269    
        7.273       7.293       7.445       7.829       7.443       7.279       7.289       7.308       0.000       0.000    
   3    0.000       0.000       0.000       0.000       7.294       7.403       7.440       7.432       7.406       7.405    
        7.404       7.403       7.441       7.832       7.392       7.213       7.285       7.315       0.000       0.000    
   4    0.000       0.000       0.000       7.412       7.499       7.827       7.824       7.826       7.831       7.830    
        7.829       7.819       7.594       7.836       7.403       7.290       7.312       7.336       0.000       0.000    
   5    0.000       0.000       7.755       7.796       7.837       7.823       7.538       7.453       7.425       7.429    
        7.501       7.827       7.836       7.815       7.402       7.323       7.342       7.367       7.391       0.000    
   6    0.000       7.837       7.839       7.834       7.749       7.467       7.339       7.308       7.298       7.296    
        7.324       7.416       7.434       7.421       7.335       7.338       7.366       7.387       7.397       0.000    
   7    0.000       7.430       7.435       7.430       7.392       7.327       7.302       7.294       7.284       7.268    
        7.289       7.315       7.325       7.325       7.313       7.350       7.383       7.404       0.000       0.000    
   8    0.000       7.308       7.320       7.324       7.321       7.315       7.312       7.306       7.286       7.215    
        7.288       7.313       7.322       7.317       7.263       7.357       7.400       7.425       0.000       0.000    
   9    0.000       0.000       7.320       7.323       7.326       7.328       7.328       7.323       7.312       7.295    
        7.315       7.330       7.339       7.344       7.345       7.385       7.420       7.450       7.484       7.501    
  10    0.000       0.000       7.330       7.332       7.335       7.337       7.337       7.333       7.326       7.321    
        7.330       7.341       7.351       7.360       7.373       7.400       7.431       7.460       7.486       7.501    

 HEAD WILL BE SAVED ON UNIT   51 AT END OF TIME STEP   74, STRESS PERIOD    2

 DRAWDOWN WILL BE SAVED ON UNIT   52 AT END OF TIME STEP   74, STRESS PERIOD    2
1
  VOLUMETRIC BUDGET FOR ENTIRE MODEL AT END OF TIME STEP   74, STRESS PERIOD   2
  ------------------------------------------------------------------------------

     CUMULATIVE VOLUMES      L**3       RATES FOR THIS TIME STEP      L**3/T
     ------------------                 ------------------------

           IN:                                      IN:
           ---                                      ---
             STORAGE =        2340.3242               STORAGE =          12.2397
       CONSTANT HEAD =           0.0000         CONSTANT HEAD =           0.0000
               WELLS =           0.0000                 WELLS =           0.0000
       RIVER LEAKAGE =      775333.3750         RIVER LEAKAGE =        3304.9036
            RECHARGE =       44810.6641              RECHARGE =         599.7326

            TOTAL IN =      822484.3750              TOTAL IN =        3916.8760

          OUT:                                     OUT:
          ----                                     ----
             STORAGE =      803309.4375               STORAGE =        3663.2031
       CONSTANT HEAD =           0.0000         CONSTANT HEAD =           0.0000
               WELLS =       19001.3965                 WELLS =         254.5907
       RIVER LEAKAGE =         268.8873         RIVER LEAKAGE =           0.0000
            RECHARGE =           0.0000              RECHARGE =           0.0000

           TOTAL OUT =      822579.6875             TOTAL OUT =        3917.7937

            IN - OUT =         -95.3125              IN - OUT =          -0.9177

 PERCENT DISCREPANCY =          -0.01     PERCENT DISCREPANCY =          -0.02






         TIME SUMMARY AT END OF TIME STEP   74 IN STRESS PERIOD    2
                    SECONDS     MINUTES      HOURS       DAYS        YEARS
                    -----------------------------------------------------------
   TIME STEP LENGTH  86400.      1440.0      24.000      1.0000     2.73785E-03
 STRESS PERIOD TIME 6.39360E+06 1.06560E+05  1776.0      74.000     0.20260    
         TOTAL TIME 6.48000E+06 1.08000E+05  1800.0      75.000     0.20534    
1

 SOLVING FOR HEAD 

    ------------------------------------------------
       NWT REQUIRED            3 OUTER ITERATIONS 
       AND A TOTAL OF          3 INNER ITERATIONS.
    ------------------------------------------------

 OUTPUT CONTROL FOR STRESS PERIOD    2   TIME STEP   75
    SAVE HEAD FOR ALL LAYERS
    SAVE DRAWDOWN FOR ALL LAYERS
    SAVE BUDGET
    PRINT HEAD FOR ALL LAYERS
    PRINT BUDGET
1
              HEAD IN LAYER   1 AT END OF TIME STEP  75 IN STRESS PERIOD    2
  ---------------------------------------------------------------------------

            1           2           3           4           5           6           7           8           9          10
           11          12          13          14          15          16          17          18          19          20
 ........................................................................................................................
   1    0.000       0.000       0.000       0.000       0.000       7.207       7.196       7.220       7.237       7.247    
        7.253       7.282       7.476       7.827       7.481       7.299       7.293       7.306       0.000       0.000    
   2    0.000       0.000       0.000       0.000       7.229       7.234       7.186       7.250       7.262       7.270    
        7.274       7.295       7.447       7.829       7.445       7.279       7.289       7.308       0.000       0.000    
   3    0.000       0.000       0.000       0.000       7.296       7.405       7.442       7.434       7.408       7.406    
        7.406       7.405       7.444       7.832       7.393       7.214       7.285       7.315       0.000       0.000    
   4    0.000       0.000       0.000       7.415       7.501       7.827       7.824       7.826       7.831       7.830    
        7.829       7.819       7.596       7.836       7.404       7.291       7.313       7.336       0.000       0.000    
   5    0.000       0.000       7.757       7.797       7.837       7.823       7.540       7.455       7.427       7.431    
        7.503       7.827       7.836       7.815       7.403       7.324       7.342       7.367       7.391       0.000    
   6    0.000       7.837       7.839       7.834       7.750       7.470       7.341       7.309       7.299       7.297    
        7.325       7.418       7.436       7.423       7.336       7.338       7.366       7.387       7.397       0.000    
   7    0.000       7.432       7.437       7.432       7.394       7.328       7.302       7.294       7.284       7.268    
        7.289       7.316       7.326       7.326       7.313       7.350       7.383       7.404       0.000       0.000    
   8    0.000       7.309       7.321       7.325       7.321       7.315       7.312       7.306       7.286       7.215    
        7.288       7.313       7.322       7.317       7.263       7.357       7.400       7.425       0.000       0.000    
   9    0.000       0.000       7.320       7.323       7.326       7.328       7.328       7.323       7.312       7.295    
        7.315       7.330       7.339       7.344       7.345       7.385       7.420       7.450       7.484       7.501    
  10    0.000       0.000       7.330       7.332       7.335       7.337       7.337       7.333       7.326       7.321    
        7.330       7.341       7.351       7.360       7.373       7.400       7.431       7.460       7.486       7.501    

 HEAD WILL BE SAVED ON UNIT   51 AT END OF TIME STEP   75, STRESS PERIOD    2

 DRAWDOWN WILL BE SAVED ON UNIT   52 AT END OF TIME STEP   75, STRESS PERIOD    2
1
  VOLUMETRIC BUDGET FOR ENTIRE MODEL AT END OF TIME STEP   75, STRESS PERIOD   2
  ------------------------------------------------------------------------------

     CUMULATIVE VOLUMES      L**3       RATES FOR THIS TIME STEP      L**3/T
     ------------------                 ------------------------

           IN:                                      IN:
           ---                                      ---
             STORAGE =        2352.2476               STORAGE =          11.9234
       CONSTANT HEAD =           0.0000         CONSTANT HEAD =           0.0000
               WELLS =           0.0000                 WELLS =           0.0000
       RIVER LEAKAGE =      778616.7500         RIVER LEAKAGE =        3283.3464
            RECHARGE =       45410.3984              RECHARGE =         599.7326

            TOTAL IN =      826379.3750              TOTAL IN =        3895.0024

          OUT:                                     OUT:
          ----                                     ----
             STORAGE =      806950.7500               STORAGE =        3641.3240
       CONSTANT HEAD =           0.0000         CONSTANT HEAD =           0.0000
               WELLS =       19255.9863                 WELLS =         254.5907
       RIVER LEAKAGE =         268.8873         RIVER LEAKAGE =           0.0000
            RECHARGE =           0.0000              RECHARGE =           0.0000

           TOTAL OUT =      826475.6250             TOTAL OUT =        3895.9146

            IN - OUT =         -96.2500              IN - OUT =          -0.9121

 PERCENT DISCREPANCY =          -0.01     PERCENT DISCREPANCY =          -0.02






         TIME SUMMARY AT END OF TIME STEP   75 IN STRESS PERIOD    2
                    SECONDS     MINUTES      HOURS       DAYS        YEARS
                    -----------------------------------------------------------
   TIME STEP LENGTH  86400.      1440.0      24.000      1.0000     2.73785E-03
 STRESS PERIOD TIME 6.48000E+06 1.08000E+05  1800.0      75.000     0.20534    
         TOTAL TIME 6.56640E+06 1.09440E+05  1824.0      76.000     0.20808    
1

 SOLVING FOR HEAD 

    ------------------------------------------------
       NWT REQUIRED            3 OUTER ITERATIONS 
       AND A TOTAL OF          3 INNER ITERATIONS.
    ------------------------------------------------

 OUTPUT CONTROL FOR STRESS PERIOD    2   TIME STEP   76
    SAVE HEAD FOR ALL LAYERS
    SAVE DRAWDOWN FOR ALL LAYERS
    SAVE BUDGET
    PRINT HEAD FOR ALL LAYERS
    PRINT BUDGET
1
              HEAD IN LAYER   1 AT END OF TIME STEP  76 IN STRESS PERIOD    2
  ---------------------------------------------------------------------------

            1           2           3           4           5           6           7           8           9          10
           11          12          13          14          15          16          17          18          19          20
 ........................................................................................................................
   1    0.000       0.000       0.000       0.000       0.000       7.207       7.196       7.220       7.237       7.247    
        7.253       7.283       7.478       7.827       7.483       7.300       7.293       7.306       0.000       0.000    
   2    0.000       0.000       0.000       0.000       7.230       7.235       7.187       7.251       7.263       7.270    
        7.275       7.296       7.450       7.829       7.447       7.280       7.289       7.308       0.000       0.000    
   3    0.000       0.000       0.000       0.000       7.297       7.407       7.444       7.436       7.410       7.408    
        7.407       7.407       7.447       7.832       7.395       7.214       7.285       7.315       0.000       0.000    
   4    0.000       0.000       0.000       7.418       7.503       7.828       7.824       7.826       7.831       7.830    
        7.829       7.820       7.599       7.836       7.406       7.291       7.313       7.336       0.000       0.000    
   5    0.000       0.000       7.759       7.798       7.837       7.823       7.543       7.458       7.428       7.433    
        7.505       7.827       7.836       7.815       7.404       7.324       7.342       7.367       7.391       0.000    
   6    0.000       7.837       7.839       7.834       7.751       7.472       7.342       7.310       7.300       7.298    
        7.326       7.419       7.437       7.424       7.337       7.338       7.366       7.387       7.397       0.000    
   7    0.000       7.434       7.438       7.434       7.396       7.329       7.303       7.295       7.284       7.268    
        7.289       7.317       7.327       7.326       7.314       7.350       7.383       7.404       0.000       0.000    
   8    0.000       7.310       7.321       7.326       7.322       7.315       7.313       7.307       7.286       7.215    
        7.288       7.313       7.323       7.317       7.263       7.357       7.400       7.425       0.000       0.000    
   9    0.000       0.000       7.320       7.323       7.326       7.328       7.328       7.323       7.312       7.295    
        7.315       7.330       7.339       7.344       7.345       7.385       7.420       7.450       7.484       7.501    
  10    0.000       0.000       7.330       7.332       7.335       7.337       7.337       7.333       7.326       7.321    
        7.330       7.341       7.351       7.360       7.373       7.400       7.431       7.460       7.486       7.501    

 HEAD WILL BE SAVED ON UNIT   51 AT END OF TIME STEP   76, STRESS PERIOD    2

 DRAWDOWN WILL BE SAVED ON UNIT   52 AT END OF TIME STEP   76, STRESS PERIOD    2
1
  VOLUMETRIC BUDGET FOR ENTIRE MODEL AT END OF TIME STEP   76, STRESS PERIOD   2
  ------------------------------------------------------------------------------

     CUMULATIVE VOLUMES      L**3       RATES FOR THIS TIME STEP      L**3/T
     ------------------                 ------------------------

           IN:                                      IN:
           ---                                      ---
             STORAGE =        2363.8552               STORAGE =          11.6078
       CONSTANT HEAD =           0.0000         CONSTANT HEAD =           0.0000
               WELLS =           0.0000                 WELLS =           0.0000
       RIVER LEAKAGE =      781878.8750         RIVER LEAKAGE =        3262.1309
            RECHARGE =       46010.1328              RECHARGE =         599.7326

            TOTAL IN =      830252.8750              TOTAL IN =        3873.4712

          OUT:                                     OUT:
          ----                                     ----
             STORAGE =      810570.5625               STORAGE =        3619.7876
       CONSTANT HEAD =           0.0000         CONSTANT HEAD =           0.0000
               WELLS =       19510.5762                 WELLS =         254.5907
       RIVER LEAKAGE =         268.8873         RIVER LEAKAGE =           0.0000
            RECHARGE =           0.0000              RECHARGE =           0.0000

           TOTAL OUT =      830350.0000             TOTAL OUT =        3874.3782

            IN - OUT =         -97.1250              IN - OUT =          -0.9070

 PERCENT DISCREPANCY =          -0.01     PERCENT DISCREPANCY =          -0.02






         TIME SUMMARY AT END OF TIME STEP   76 IN STRESS PERIOD    2
                    SECONDS     MINUTES      HOURS       DAYS        YEARS
                    -----------------------------------------------------------
   TIME STEP LENGTH  86400.      1440.0      24.000      1.0000     2.73785E-03
 STRESS PERIOD TIME 6.56640E+06 1.09440E+05  1824.0      76.000     0.20808    
         TOTAL TIME 6.65280E+06 1.10880E+05  1848.0      77.000     0.21081    
1

 SOLVING FOR HEAD 

    ------------------------------------------------
       NWT REQUIRED            3 OUTER ITERATIONS 
       AND A TOTAL OF          3 INNER ITERATIONS.
    ------------------------------------------------

 OUTPUT CONTROL FOR STRESS PERIOD    2   TIME STEP   77
    SAVE HEAD FOR ALL LAYERS
    SAVE DRAWDOWN FOR ALL LAYERS
    SAVE BUDGET
    PRINT HEAD FOR ALL LAYERS
    PRINT BUDGET
1
              HEAD IN LAYER   1 AT END OF TIME STEP  77 IN STRESS PERIOD    2
  ---------------------------------------------------------------------------

            1           2           3           4           5           6           7           8           9          10
           11          12          13          14          15          16          17          18          19          20
 ........................................................................................................................
   1    0.000       0.000       0.000       0.000       0.000       7.208       7.196       7.221       7.237       7.247    
        7.254       7.284       7.480       7.827       7.485       7.301       7.293       7.306       0.000       0.000    
   2    0.000       0.000       0.000       0.000       7.230       7.236       7.187       7.252       7.264       7.271    
        7.276       7.297       7.452       7.829       7.449       7.281       7.289       7.308       0.000       0.000    
   3    0.000       0.000       0.000       0.000       7.299       7.408       7.446       7.438       7.412       7.410    
        7.409       7.409       7.449       7.832       7.397       7.215       7.285       7.315       0.000       0.000    
   4    0.000       0.000       0.000       7.420       7.506       7.828       7.824       7.826       7.831       7.830    
        7.829       7.820       7.602       7.836       7.407       7.292       7.313       7.337       0.000       0.000    
   5    0.000       0.000       7.762       7.798       7.837       7.823       7.545       7.460       7.430       7.435    
        7.508       7.827       7.836       7.815       7.406       7.325       7.342       7.367       7.391       0.000    
   6    0.000       7.837       7.839       7.834       7.751       7.474       7.344       7.311       7.301       7.299    
        7.328       7.421       7.439       7.426       7.338       7.338       7.366       7.387       7.397       0.000    
   7    0.000       7.435       7.440       7.435       7.397       7.330       7.303       7.295       7.284       7.268    
        7.290       7.317       7.327       7.327       7.314       7.350       7.383       7.404       0.000       0.000    
   8    0.000       7.311       7.322       7.326       7.322       7.315       7.313       7.307       7.286       7.214    
        7.288       7.314       7.323       7.317       7.263       7.357       7.400       7.425       0.000       0.000    
   9    0.000       0.000       7.320       7.323       7.326       7.328       7.328       7.323       7.312       7.295    
        7.315       7.330       7.340       7.344       7.345       7.385       7.420       7.450       7.484       7.501    
  10    0.000       0.000       7.330       7.332       7.335       7.337       7.337       7.333       7.326       7.321    
        7.330       7.341       7.351       7.360       7.373       7.400       7.431       7.460       7.486       7.501    

 HEAD WILL BE SAVED ON UNIT   51 AT END OF TIME STEP   77, STRESS PERIOD    2

 DRAWDOWN WILL BE SAVED ON UNIT   52 AT END OF TIME STEP   77, STRESS PERIOD    2
1
  VOLUMETRIC BUDGET FOR ENTIRE MODEL AT END OF TIME STEP   77, STRESS PERIOD   2
  ------------------------------------------------------------------------------

     CUMULATIVE VOLUMES      L**3       RATES FOR THIS TIME STEP      L**3/T
     ------------------                 ------------------------

           IN:                                      IN:
           ---                                      ---
             STORAGE =        2375.1487               STORAGE =          11.2935
       CONSTANT HEAD =           0.0000         CONSTANT HEAD =           0.0000
               WELLS =           0.0000                 WELLS =           0.0000
       RIVER LEAKAGE =      785120.1250         RIVER LEAKAGE =        3241.2429
            RECHARGE =       46609.8672              RECHARGE =         599.7326

            TOTAL IN =      834105.1250              TOTAL IN =        3852.2690

          OUT:                                     OUT:
          ----                                     ----
             STORAGE =      814169.1250               STORAGE =        3598.5801
       CONSTANT HEAD =           0.0000         CONSTANT HEAD =           0.0000
               WELLS =       19765.1660                 WELLS =         254.5907
       RIVER LEAKAGE =         268.8873         RIVER LEAKAGE =           0.0000
            RECHARGE =           0.0000              RECHARGE =           0.0000

           TOTAL OUT =      834203.1875             TOTAL OUT =        3853.1707

            IN - OUT =         -98.0625              IN - OUT =          -0.9016

 PERCENT DISCREPANCY =          -0.01     PERCENT DISCREPANCY =          -0.02






         TIME SUMMARY AT END OF TIME STEP   77 IN STRESS PERIOD    2
                    SECONDS     MINUTES      HOURS       DAYS        YEARS
                    -----------------------------------------------------------
   TIME STEP LENGTH  86400.      1440.0      24.000      1.0000     2.73785E-03
 STRESS PERIOD TIME 6.65280E+06 1.10880E+05  1848.0      77.000     0.21081    
         TOTAL TIME 6.73920E+06 1.12320E+05  1872.0      78.000     0.21355    
1

 SOLVING FOR HEAD 

    ------------------------------------------------
       NWT REQUIRED            3 OUTER ITERATIONS 
       AND A TOTAL OF          3 INNER ITERATIONS.
    ------------------------------------------------

 OUTPUT CONTROL FOR STRESS PERIOD    2   TIME STEP   78
    SAVE HEAD FOR ALL LAYERS
    SAVE DRAWDOWN FOR ALL LAYERS
    SAVE BUDGET
    PRINT HEAD FOR ALL LAYERS
    PRINT BUDGET
1
              HEAD IN LAYER   1 AT END OF TIME STEP  78 IN STRESS PERIOD    2
  ---------------------------------------------------------------------------

            1           2           3           4           5           6           7           8           9          10
           11          12          13          14          15          16          17          18          19          20
 ........................................................................................................................
   1    0.000       0.000       0.000       0.000       0.000       7.208       7.197       7.221       7.238       7.248    
        7.254       7.285       7.482       7.827       7.487       7.302       7.293       7.306       0.000       0.000    
   2    0.000       0.000       0.000       0.000       7.231       7.237       7.188       7.253       7.264       7.272    
        7.276       7.299       7.454       7.829       7.451       7.281       7.289       7.308       0.000       0.000    
   3    0.000       0.000       0.000       0.000       7.300       7.410       7.447       7.440       7.414       7.412    
        7.411       7.411       7.452       7.832       7.398       7.215       7.285       7.316       0.000       0.000    
   4    0.000       0.000       0.000       7.423       7.508       7.828       7.824       7.826       7.831       7.830    
        7.829       7.820       7.605       7.836       7.409       7.292       7.313       7.337       0.000       0.000    
   5    0.000       0.000       7.764       7.799       7.837       7.823       7.547       7.462       7.432       7.437    
        7.510       7.827       7.836       7.815       7.407       7.325       7.342       7.367       7.391       0.000    
   6    0.000       7.837       7.839       7.834       7.752       7.476       7.345       7.312       7.302       7.300    
        7.329       7.422       7.441       7.427       7.339       7.338       7.366       7.387       7.397       0.000    
   7    0.000       7.437       7.442       7.437       7.399       7.331       7.304       7.295       7.285       7.268    
        7.290       7.318       7.328       7.328       7.314       7.350       7.383       7.404       0.000       0.000    
   8    0.000       7.312       7.323       7.327       7.323       7.316       7.313       7.307       7.286       7.214    
        7.288       7.314       7.323       7.317       7.263       7.357       7.400       7.425       0.000       0.000    
   9    0.000       0.000       7.320       7.323       7.326       7.328       7.328       7.323       7.312       7.295    
        7.315       7.330       7.340       7.344       7.345       7.385       7.420       7.450       7.484       7.501    
  10    0.000       0.000       7.330       7.332       7.335       7.337       7.337       7.333       7.326       7.321    
        7.330       7.341       7.351       7.360       7.373       7.400       7.431       7.460       7.487       7.501    

 HEAD WILL BE SAVED ON UNIT   51 AT END OF TIME STEP   78, STRESS PERIOD    2

 DRAWDOWN WILL BE SAVED ON UNIT   52 AT END OF TIME STEP   78, STRESS PERIOD    2
1
  VOLUMETRIC BUDGET FOR ENTIRE MODEL AT END OF TIME STEP   78, STRESS PERIOD   2
  ------------------------------------------------------------------------------

     CUMULATIVE VOLUMES      L**3       RATES FOR THIS TIME STEP      L**3/T
     ------------------                 ------------------------

           IN:                                      IN:
           ---                                      ---
             STORAGE =        2386.1284               STORAGE =          10.9796
       CONSTANT HEAD =           0.0000         CONSTANT HEAD =           0.0000
               WELLS =           0.0000                 WELLS =           0.0000
       RIVER LEAKAGE =      788340.8125         RIVER LEAKAGE =        3220.6729
            RECHARGE =       47209.6016              RECHARGE =         599.7326

            TOTAL IN =      837936.5625              TOTAL IN =        3831.3853

          OUT:                                     OUT:
          ----                                     ----
             STORAGE =      817746.8125               STORAGE =        3577.6909
       CONSTANT HEAD =           0.0000         CONSTANT HEAD =           0.0000
               WELLS =       20019.7559                 WELLS =         254.5907
       RIVER LEAKAGE =         268.8873         RIVER LEAKAGE =           0.0000
            RECHARGE =           0.0000              RECHARGE =           0.0000

           TOTAL OUT =      838035.4375             TOTAL OUT =        3832.2815

            IN - OUT =         -98.8750              IN - OUT =          -0.8962

 PERCENT DISCREPANCY =          -0.01     PERCENT DISCREPANCY =          -0.02






         TIME SUMMARY AT END OF TIME STEP   78 IN STRESS PERIOD    2
                    SECONDS     MINUTES      HOURS       DAYS        YEARS
                    -----------------------------------------------------------
   TIME STEP LENGTH  86400.      1440.0      24.000      1.0000     2.73785E-03
 STRESS PERIOD TIME 6.73920E+06 1.12320E+05  1872.0      78.000     0.21355    
         TOTAL TIME 6.82560E+06 1.13760E+05  1896.0      79.000     0.21629    
1

 SOLVING FOR HEAD 

    ------------------------------------------------
       NWT REQUIRED            3 OUTER ITERATIONS 
       AND A TOTAL OF          3 INNER ITERATIONS.
    ------------------------------------------------

 OUTPUT CONTROL FOR STRESS PERIOD    2   TIME STEP   79
    SAVE HEAD FOR ALL LAYERS
    SAVE DRAWDOWN FOR ALL LAYERS
    SAVE BUDGET
    PRINT HEAD FOR ALL LAYERS
    PRINT BUDGET
1
              HEAD IN LAYER   1 AT END OF TIME STEP  79 IN STRESS PERIOD    2
  ---------------------------------------------------------------------------

            1           2           3           4           5           6           7           8           9          10
           11          12          13          14          15          16          17          18          19          20
 ........................................................................................................................
   1    0.000       0.000       0.000       0.000       0.000       7.208       7.197       7.221       7.238       7.248    
        7.254       7.286       7.484       7.828       7.489       7.303       7.293       7.306       0.000       0.000    
   2    0.000       0.000       0.000       0.000       7.232       7.237       7.189       7.254       7.265       7.273    
        7.277       7.300       7.456       7.830       7.452       7.282       7.290       7.308       0.000       0.000    
   3    0.000       0.000       0.000       0.000       7.302       7.412       7.449       7.442       7.415       7.413    
        7.413       7.413       7.455       7.832       7.400       7.216       7.285       7.316       0.000       0.000    
   4    0.000       0.000       0.000       7.426       7.510       7.828       7.824       7.827       7.831       7.830    
        7.830       7.820       7.608       7.836       7.411       7.293       7.313       7.337       0.000       0.000    
   5    0.000       0.000       7.766       7.799       7.837       7.823       7.549       7.464       7.434       7.439    
        7.512       7.827       7.836       7.816       7.408       7.325       7.342       7.367       7.391       0.000    
   6    0.000       7.837       7.839       7.834       7.753       7.478       7.347       7.313       7.303       7.301    
        7.330       7.424       7.442       7.428       7.339       7.339       7.366       7.387       7.397       0.000    
   7    0.000       7.439       7.443       7.438       7.400       7.333       7.304       7.295       7.285       7.268    
        7.290       7.318       7.329       7.328       7.314       7.350       7.383       7.404       0.000       0.000    
   8    0.000       7.313       7.324       7.328       7.323       7.316       7.313       7.307       7.286       7.214    
        7.288       7.314       7.323       7.317       7.263       7.357       7.400       7.425       0.000       0.000    
   9    0.000       0.000       7.321       7.324       7.326       7.328       7.328       7.323       7.312       7.295    
        7.315       7.330       7.340       7.344       7.345       7.385       7.420       7.450       7.484       7.501    
  10    0.000       0.000       7.330       7.332       7.335       7.337       7.337       7.333       7.326       7.321    
        7.330       7.341       7.351       7.360       7.373       7.401       7.431       7.460       7.487       7.501    

 HEAD WILL BE SAVED ON UNIT   51 AT END OF TIME STEP   79, STRESS PERIOD    2

 DRAWDOWN WILL BE SAVED ON UNIT   52 AT END OF TIME STEP   79, STRESS PERIOD    2
1
  VOLUMETRIC BUDGET FOR ENTIRE MODEL AT END OF TIME STEP   79, STRESS PERIOD   2
  ------------------------------------------------------------------------------

     CUMULATIVE VOLUMES      L**3       RATES FOR THIS TIME STEP      L**3/T
     ------------------                 ------------------------

           IN:                                      IN:
           ---                                      ---
             STORAGE =        2396.7949               STORAGE =          10.6666
       CONSTANT HEAD =           0.0000         CONSTANT HEAD =           0.0000
               WELLS =           0.0000                 WELLS =           0.0000
       RIVER LEAKAGE =      791541.2500         RIVER LEAKAGE =        3200.4360
            RECHARGE =       47809.3359              RECHARGE =         599.7326

            TOTAL IN =      841747.3750              TOTAL IN =        3810.8352

          OUT:                                     OUT:
          ----                                     ----
             STORAGE =      821303.9375               STORAGE =        3557.1357
       CONSTANT HEAD =           0.0000         CONSTANT HEAD =           0.0000
               WELLS =       20274.3457                 WELLS =         254.5907
       RIVER LEAKAGE =         268.8873         RIVER LEAKAGE =           0.0000
            RECHARGE =           0.0000              RECHARGE =           0.0000

           TOTAL OUT =      841847.1875             TOTAL OUT =        3811.7263

            IN - OUT =         -99.8125              IN - OUT =          -0.8911

 PERCENT DISCREPANCY =          -0.01     PERCENT DISCREPANCY =          -0.02






         TIME SUMMARY AT END OF TIME STEP   79 IN STRESS PERIOD    2
                    SECONDS     MINUTES      HOURS       DAYS        YEARS
                    -----------------------------------------------------------
   TIME STEP LENGTH  86400.      1440.0      24.000      1.0000     2.73785E-03
 STRESS PERIOD TIME 6.82560E+06 1.13760E+05  1896.0      79.000     0.21629    
         TOTAL TIME 6.91200E+06 1.15200E+05  1920.0      80.000     0.21903    
1

 SOLVING FOR HEAD 

    ------------------------------------------------
       NWT REQUIRED            3 OUTER ITERATIONS 
       AND A TOTAL OF          3 INNER ITERATIONS.
    ------------------------------------------------

 OUTPUT CONTROL FOR STRESS PERIOD    2   TIME STEP   80
    SAVE HEAD FOR ALL LAYERS
    SAVE DRAWDOWN FOR ALL LAYERS
    SAVE BUDGET
    PRINT HEAD FOR ALL LAYERS
    PRINT BUDGET
1
              HEAD IN LAYER   1 AT END OF TIME STEP  80 IN STRESS PERIOD    2
  ---------------------------------------------------------------------------

            1           2           3           4           5           6           7           8           9          10
           11          12          13          14          15          16          17          18          19          20
 ........................................................................................................................
   1    0.000       0.000       0.000       0.000       0.000       7.208       7.197       7.221       7.238       7.248    
        7.255       7.287       7.486       7.828       7.491       7.304       7.294       7.306       0.000       0.000    
   2    0.000       0.000       0.000       0.000       7.232       7.238       7.190       7.255       7.266       7.274    
        7.278       7.301       7.459       7.830       7.454       7.283       7.290       7.308       0.000       0.000    
   3    0.000       0.000       0.000       0.000       7.303       7.413       7.451       7.443       7.417       7.415    
        7.415       7.415       7.457       7.832       7.402       7.216       7.285       7.316       0.000       0.000    
   4    0.000       0.000       0.000       7.429       7.512       7.828       7.824       7.827       7.831       7.830    
        7.830       7.820       7.610       7.836       7.412       7.293       7.313       7.337       0.000       0.000    
   5    0.000       0.000       7.768       7.800       7.837       7.824       7.551       7.466       7.436       7.441    
        7.514       7.827       7.836       7.816       7.410       7.326       7.342       7.367       7.391       0.000    
   6    0.000       7.837       7.839       7.834       7.754       7.480       7.348       7.314       7.303       7.302    
        7.331       7.425       7.444       7.430       7.340       7.339       7.366       7.387       7.397       0.000    
   7    0.000       7.441       7.445       7.440       7.402       7.334       7.305       7.296       7.285       7.268    
        7.291       7.319       7.329       7.329       7.314       7.350       7.383       7.404       0.000       0.000    
   8    0.000       7.314       7.324       7.328       7.324       7.316       7.313       7.307       7.286       7.214    
        7.288       7.314       7.323       7.317       7.263       7.357       7.400       7.425       0.000       0.000    
   9    0.000       0.000       7.321       7.324       7.326       7.328       7.328       7.323       7.312       7.295    
        7.315       7.330       7.340       7.344       7.345       7.385       7.420       7.451       7.484       7.501    
  10    0.000       0.000       7.330       7.332       7.335       7.337       7.337       7.333       7.326       7.321    
        7.330       7.341       7.351       7.360       7.373       7.401       7.431       7.460       7.487       7.501    

 HEAD WILL BE SAVED ON UNIT   51 AT END OF TIME STEP   80, STRESS PERIOD    2

 DRAWDOWN WILL BE SAVED ON UNIT   52 AT END OF TIME STEP   80, STRESS PERIOD    2
1
  VOLUMETRIC BUDGET FOR ENTIRE MODEL AT END OF TIME STEP   80, STRESS PERIOD   2
  ------------------------------------------------------------------------------

     CUMULATIVE VOLUMES      L**3       RATES FOR THIS TIME STEP      L**3/T
     ------------------                 ------------------------

           IN:                                      IN:
           ---                                      ---
             STORAGE =        2407.1494               STORAGE =          10.3544
       CONSTANT HEAD =           0.0000         CONSTANT HEAD =           0.0000
               WELLS =           0.0000                 WELLS =           0.0000
       RIVER LEAKAGE =      794721.7500         RIVER LEAKAGE =        3180.4985
            RECHARGE =       48409.0703              RECHARGE =         599.7326

            TOTAL IN =      845537.9375              TOTAL IN =        3790.5857

          OUT:                                     OUT:
          ----                                     ----
             STORAGE =      824840.8125               STORAGE =        3536.8811
       CONSTANT HEAD =           0.0000         CONSTANT HEAD =           0.0000
               WELLS =       20528.9355                 WELLS =         254.5907
       RIVER LEAKAGE =         268.8873         RIVER LEAKAGE =           0.0000
            RECHARGE =           0.0000              RECHARGE =           0.0000

           TOTAL OUT =      845638.6250             TOTAL OUT =        3791.4717

            IN - OUT =        -100.6875              IN - OUT =          -0.8860

 PERCENT DISCREPANCY =          -0.01     PERCENT DISCREPANCY =          -0.02






         TIME SUMMARY AT END OF TIME STEP   80 IN STRESS PERIOD    2
                    SECONDS     MINUTES      HOURS       DAYS        YEARS
                    -----------------------------------------------------------
   TIME STEP LENGTH  86400.      1440.0      24.000      1.0000     2.73785E-03
 STRESS PERIOD TIME 6.91200E+06 1.15200E+05  1920.0      80.000     0.21903    
         TOTAL TIME 6.99840E+06 1.16640E+05  1944.0      81.000     0.22177    
1

 SOLVING FOR HEAD 

    ------------------------------------------------
       NWT REQUIRED            3 OUTER ITERATIONS 
       AND A TOTAL OF          3 INNER ITERATIONS.
    ------------------------------------------------

 OUTPUT CONTROL FOR STRESS PERIOD    2   TIME STEP   81
    SAVE HEAD FOR ALL LAYERS
    SAVE DRAWDOWN FOR ALL LAYERS
    SAVE BUDGET
    PRINT HEAD FOR ALL LAYERS
    PRINT BUDGET
1
              HEAD IN LAYER   1 AT END OF TIME STEP  81 IN STRESS PERIOD    2
  ---------------------------------------------------------------------------

            1           2           3           4           5           6           7           8           9          10
           11          12          13          14          15          16          17          18          19          20
 ........................................................................................................................
   1    0.000       0.000       0.000       0.000       0.000       7.208       7.197       7.222       7.238       7.248    
        7.255       7.288       7.488       7.828       7.493       7.304       7.294       7.306       0.000       0.000    
   2    0.000       0.000       0.000       0.000       7.233       7.239       7.191       7.256       7.267       7.274    
        7.279       7.303       7.461       7.830       7.456       7.283       7.290       7.308       0.000       0.000    
   3    0.000       0.000       0.000       0.000       7.305       7.415       7.453       7.445       7.419       7.417    
        7.416       7.417       7.460       7.832       7.403       7.217       7.286       7.316       0.000       0.000    
   4    0.000       0.000       0.000       7.431       7.514       7.828       7.824       7.827       7.831       7.830    
        7.830       7.820       7.613       7.836       7.414       7.294       7.313       7.337       0.000       0.000    
   5    0.000       0.000       7.770       7.801       7.837       7.824       7.553       7.468       7.438       7.443    
        7.516       7.827       7.836       7.816       7.411       7.326       7.342       7.368       7.391       0.000    
   6    0.000       7.837       7.839       7.834       7.755       7.482       7.350       7.315       7.304       7.302    
        7.333       7.427       7.445       7.431       7.341       7.339       7.366       7.387       7.397       0.000    
   7    0.000       7.442       7.447       7.442       7.404       7.335       7.305       7.296       7.285       7.269    
        7.291       7.320       7.330       7.329       7.315       7.350       7.383       7.404       0.000       0.000    
   8    0.000       7.315       7.325       7.329       7.325       7.317       7.313       7.307       7.286       7.214    
        7.288       7.314       7.323       7.317       7.262       7.357       7.400       7.425       0.000       0.000    
   9    0.000       0.000       7.321       7.324       7.327       7.328       7.328       7.323       7.312       7.295    
        7.315       7.330       7.340       7.344       7.345       7.385       7.420       7.451       7.484       7.501    
  10    0.000       0.000       7.330       7.332       7.335       7.337       7.337       7.333       7.326       7.321    
        7.330       7.341       7.351       7.360       7.373       7.401       7.431       7.460       7.487       7.501    

 HEAD WILL BE SAVED ON UNIT   51 AT END OF TIME STEP   81, STRESS PERIOD    2

 DRAWDOWN WILL BE SAVED ON UNIT   52 AT END OF TIME STEP   81, STRESS PERIOD    2
1
  VOLUMETRIC BUDGET FOR ENTIRE MODEL AT END OF TIME STEP   81, STRESS PERIOD   2
  ------------------------------------------------------------------------------

     CUMULATIVE VOLUMES      L**3       RATES FOR THIS TIME STEP      L**3/T
     ------------------                 ------------------------

           IN:                                      IN:
           ---                                      ---
             STORAGE =        2417.1926               STORAGE =          10.0433
       CONSTANT HEAD =           0.0000         CONSTANT HEAD =           0.0000
               WELLS =           0.0000                 WELLS =           0.0000
       RIVER LEAKAGE =      797882.6250         RIVER LEAKAGE =        3160.8621
            RECHARGE =       49008.8047              RECHARGE =         599.7326

            TOTAL IN =      849308.6250              TOTAL IN =        3770.6379

          OUT:                                     OUT:
          ----                                     ----
             STORAGE =      828357.7500               STORAGE =        3516.9287
       CONSTANT HEAD =           0.0000         CONSTANT HEAD =           0.0000
               WELLS =       20783.5254                 WELLS =         254.5907
       RIVER LEAKAGE =         268.8873         RIVER LEAKAGE =           0.0000
            RECHARGE =           0.0000              RECHARGE =           0.0000

           TOTAL OUT =      849410.1250             TOTAL OUT =        3771.5193

            IN - OUT =        -101.5000              IN - OUT =          -0.8813

 PERCENT DISCREPANCY =          -0.01     PERCENT DISCREPANCY =          -0.02






         TIME SUMMARY AT END OF TIME STEP   81 IN STRESS PERIOD    2
                    SECONDS     MINUTES      HOURS       DAYS        YEARS
                    -----------------------------------------------------------
   TIME STEP LENGTH  86400.      1440.0      24.000      1.0000     2.73785E-03
 STRESS PERIOD TIME 6.99840E+06 1.16640E+05  1944.0      81.000     0.22177    
         TOTAL TIME 7.08480E+06 1.18080E+05  1968.0      82.000     0.22450    
1

 SOLVING FOR HEAD 

    ------------------------------------------------
       NWT REQUIRED            3 OUTER ITERATIONS 
       AND A TOTAL OF          3 INNER ITERATIONS.
    ------------------------------------------------

 OUTPUT CONTROL FOR STRESS PERIOD    2   TIME STEP   82
    SAVE HEAD FOR ALL LAYERS
    SAVE DRAWDOWN FOR ALL LAYERS
    SAVE BUDGET
    PRINT HEAD FOR ALL LAYERS
    PRINT BUDGET
1
              HEAD IN LAYER   1 AT END OF TIME STEP  82 IN STRESS PERIOD    2
  ---------------------------------------------------------------------------

            1           2           3           4           5           6           7           8           9          10
           11          12          13          14          15          16          17          18          19          20
 ........................................................................................................................
   1    0.000       0.000       0.000       0.000       0.000       7.209       7.198       7.222       7.239       7.249    
        7.255       7.289       7.490       7.828       7.495       7.305       7.294       7.306       0.000       0.000    
   2    0.000       0.000       0.000       0.000       7.233       7.240       7.192       7.257       7.268       7.275    
        7.280       7.304       7.463       7.830       7.458       7.284       7.290       7.308       0.000       0.000    
   3    0.000       0.000       0.000       0.000       7.306       7.417       7.454       7.447       7.421       7.418    
        7.418       7.419       7.462       7.833       7.405       7.217       7.286       7.316       0.000       0.000    
   4    0.000       0.000       0.000       7.434       7.517       7.828       7.824       7.827       7.831       7.830    
        7.830       7.821       7.615       7.836       7.415       7.294       7.313       7.337       0.000       0.000    
   5    0.000       0.000       7.772       7.801       7.837       7.824       7.556       7.470       7.439       7.445    
        7.518       7.827       7.836       7.816       7.412       7.327       7.342       7.368       7.391       0.000    
   6    0.000       7.838       7.839       7.834       7.755       7.484       7.351       7.316       7.305       7.303    
        7.334       7.428       7.447       7.433       7.342       7.339       7.366       7.387       7.397       0.000    
   7    0.000       7.444       7.448       7.443       7.405       7.336       7.306       7.296       7.285       7.269    
        7.292       7.320       7.331       7.330       7.315       7.351       7.383       7.404       0.000       0.000    
   8    0.000       7.316       7.326       7.330       7.325       7.317       7.313       7.307       7.286       7.214    
        7.288       7.314       7.323       7.317       7.262       7.357       7.400       7.425       0.000       0.000    
   9    0.000       0.000       7.321       7.324       7.327       7.328       7.328       7.323       7.312       7.295    
        7.315       7.330       7.340       7.344       7.345       7.385       7.420       7.451       7.484       7.501    
  10    0.000       0.000       7.330       7.332       7.335       7.337       7.337       7.333       7.326       7.321    
        7.330       7.341       7.351       7.360       7.373       7.401       7.431       7.460       7.487       7.501    

 HEAD WILL BE SAVED ON UNIT   51 AT END OF TIME STEP   82, STRESS PERIOD    2

 DRAWDOWN WILL BE SAVED ON UNIT   52 AT END OF TIME STEP   82, STRESS PERIOD    2
1
  VOLUMETRIC BUDGET FOR ENTIRE MODEL AT END OF TIME STEP   82, STRESS PERIOD   2
  ------------------------------------------------------------------------------

     CUMULATIVE VOLUMES      L**3       RATES FOR THIS TIME STEP      L**3/T
     ------------------                 ------------------------

           IN:                                      IN:
           ---                                      ---
             STORAGE =        2426.9480               STORAGE =           9.7553
       CONSTANT HEAD =           0.0000         CONSTANT HEAD =           0.0000
               WELLS =           0.0000                 WELLS =           0.0000
       RIVER LEAKAGE =      801024.1250         RIVER LEAKAGE =        3141.5127
            RECHARGE =       49608.5391              RECHARGE =         599.7326

            TOTAL IN =      853059.6250              TOTAL IN =        3751.0007

          OUT:                                     OUT:
          ----                                     ----
             STORAGE =      831855.0625               STORAGE =        3497.2861
       CONSTANT HEAD =           0.0000         CONSTANT HEAD =           0.0000
               WELLS =       21038.1152                 WELLS =         254.5907
       RIVER LEAKAGE =         268.8873         RIVER LEAKAGE =           0.0000
            RECHARGE =           0.0000              RECHARGE =           0.0000

           TOTAL OUT =      853162.0625             TOTAL OUT =        3751.8767

            IN - OUT =        -102.4375              IN - OUT =          -0.8760

 PERCENT DISCREPANCY =          -0.01     PERCENT DISCREPANCY =          -0.02






         TIME SUMMARY AT END OF TIME STEP   82 IN STRESS PERIOD    2
                    SECONDS     MINUTES      HOURS       DAYS        YEARS
                    -----------------------------------------------------------
   TIME STEP LENGTH  86400.      1440.0      24.000      1.0000     2.73785E-03
 STRESS PERIOD TIME 7.08480E+06 1.18080E+05  1968.0      82.000     0.22450    
         TOTAL TIME 7.17120E+06 1.19520E+05  1992.0      83.000     0.22724    
1

 SOLVING FOR HEAD 

    ------------------------------------------------
       NWT REQUIRED            3 OUTER ITERATIONS 
       AND A TOTAL OF          3 INNER ITERATIONS.
    ------------------------------------------------

 OUTPUT CONTROL FOR STRESS PERIOD    2   TIME STEP   83
    SAVE HEAD FOR ALL LAYERS
    SAVE DRAWDOWN FOR ALL LAYERS
    SAVE BUDGET
    PRINT HEAD FOR ALL LAYERS
    PRINT BUDGET
1
              HEAD IN LAYER   1 AT END OF TIME STEP  83 IN STRESS PERIOD    2
  ---------------------------------------------------------------------------

            1           2           3           4           5           6           7           8           9          10
           11          12          13          14          15          16          17          18          19          20
 ........................................................................................................................
   1    0.000       0.000       0.000       0.000       0.000       7.209       7.198       7.222       7.239       7.249    
        7.256       7.290       7.492       7.828       7.497       7.306       7.294       7.306       0.000       0.000    
   2    0.000       0.000       0.000       0.000       7.234       7.240       7.193       7.258       7.268       7.276    
        7.281       7.305       7.465       7.830       7.460       7.285       7.290       7.308       0.000       0.000    
   3    0.000       0.000       0.000       0.000       7.308       7.418       7.456       7.449       7.422       7.420    
        7.420       7.421       7.465       7.833       7.407       7.218       7.286       7.316       0.000       0.000    
   4    0.000       0.000       0.000       7.437       7.519       7.828       7.825       7.827       7.831       7.830    
        7.830       7.821       7.618       7.836       7.417       7.295       7.313       7.337       0.000       0.000    
   5    0.000       0.000       7.774       7.802       7.837       7.824       7.558       7.472       7.441       7.446    
        7.520       7.828       7.836       7.816       7.413       7.327       7.343       7.368       7.391       0.000    
   6    0.000       7.838       7.839       7.834       7.756       7.486       7.353       7.317       7.306       7.304    
        7.335       7.430       7.448       7.434       7.343       7.340       7.366       7.387       7.397       0.000    
   7    0.000       7.446       7.450       7.445       7.407       7.337       7.306       7.296       7.285       7.269    
        7.292       7.321       7.332       7.330       7.315       7.351       7.383       7.404       0.000       0.000    
   8    0.000       7.317       7.327       7.330       7.326       7.317       7.313       7.307       7.286       7.214    
        7.288       7.314       7.324       7.317       7.262       7.357       7.400       7.425       0.000       0.000    
   9    0.000       0.000       7.321       7.324       7.327       7.328       7.328       7.323       7.312       7.295    
        7.315       7.330       7.340       7.344       7.345       7.385       7.420       7.451       7.484       7.501    
  10    0.000       0.000       7.330       7.332       7.335       7.337       7.337       7.333       7.326       7.321    
        7.330       7.341       7.351       7.360       7.373       7.401       7.431       7.460       7.487       7.501    

 HEAD WILL BE SAVED ON UNIT   51 AT END OF TIME STEP   83, STRESS PERIOD    2

 DRAWDOWN WILL BE SAVED ON UNIT   52 AT END OF TIME STEP   83, STRESS PERIOD    2
1
  VOLUMETRIC BUDGET FOR ENTIRE MODEL AT END OF TIME STEP   83, STRESS PERIOD   2
  ------------------------------------------------------------------------------

     CUMULATIVE VOLUMES      L**3       RATES FOR THIS TIME STEP      L**3/T
     ------------------                 ------------------------

           IN:                                      IN:
           ---                                      ---
             STORAGE =        2436.4304               STORAGE =           9.4825
       CONSTANT HEAD =           0.0000         CONSTANT HEAD =           0.0000
               WELLS =           0.0000                 WELLS =           0.0000
       RIVER LEAKAGE =      804146.5625         RIVER LEAKAGE =        3122.4360
            RECHARGE =       50208.2734              RECHARGE =         599.7326

            TOTAL IN =      856791.2500              TOTAL IN =        3731.6511

          OUT:                                     OUT:
          ----                                     ----
             STORAGE =      835333.0000               STORAGE =        3477.9319
       CONSTANT HEAD =           0.0000         CONSTANT HEAD =           0.0000
               WELLS =       21292.7051                 WELLS =         254.5907
       RIVER LEAKAGE =         268.8873         RIVER LEAKAGE =           0.0000
            RECHARGE =           0.0000              RECHARGE =           0.0000

           TOTAL OUT =      856894.5625             TOTAL OUT =        3732.5225

            IN - OUT =        -103.3125              IN - OUT =          -0.8713

 PERCENT DISCREPANCY =          -0.01     PERCENT DISCREPANCY =          -0.02






         TIME SUMMARY AT END OF TIME STEP   83 IN STRESS PERIOD    2
                    SECONDS     MINUTES      HOURS       DAYS        YEARS
                    -----------------------------------------------------------
   TIME STEP LENGTH  86400.      1440.0      24.000      1.0000     2.73785E-03
 STRESS PERIOD TIME 7.17120E+06 1.19520E+05  1992.0      83.000     0.22724    
         TOTAL TIME 7.25760E+06 1.20960E+05  2016.0      84.000     0.22998    
1

 SOLVING FOR HEAD 

    ------------------------------------------------
       NWT REQUIRED            3 OUTER ITERATIONS 
       AND A TOTAL OF          3 INNER ITERATIONS.
    ------------------------------------------------

 OUTPUT CONTROL FOR STRESS PERIOD    2   TIME STEP   84
    SAVE HEAD FOR ALL LAYERS
    SAVE DRAWDOWN FOR ALL LAYERS
    SAVE BUDGET
    PRINT HEAD FOR ALL LAYERS
    PRINT BUDGET
1
              HEAD IN LAYER   1 AT END OF TIME STEP  84 IN STRESS PERIOD    2
  ---------------------------------------------------------------------------

            1           2           3           4           5           6           7           8           9          10
           11          12          13          14          15          16          17          18          19          20
 ........................................................................................................................
   1    0.000       0.000       0.000       0.000       0.000       7.209       7.198       7.222       7.239       7.249    
        7.256       7.291       7.494       7.828       7.499       7.307       7.294       7.306       0.000       0.000    
   2    0.000       0.000       0.000       0.000       7.234       7.241       7.194       7.259       7.269       7.277    
        7.282       7.307       7.467       7.830       7.462       7.286       7.290       7.308       0.000       0.000    
   3    0.000       0.000       0.000       0.000       7.309       7.420       7.458       7.451       7.424       7.422    
        7.421       7.423       7.468       7.833       7.408       7.218       7.286       7.316       0.000       0.000    
   4    0.000       0.000       0.000       7.439       7.521       7.828       7.825       7.827       7.831       7.830    
        7.830       7.821       7.620       7.837       7.418       7.295       7.313       7.337       0.000       0.000    
   5    0.000       0.000       7.776       7.802       7.837       7.824       7.560       7.474       7.443       7.448    
        7.522       7.828       7.836       7.816       7.415       7.328       7.343       7.368       7.391       0.000    
   6    0.000       7.838       7.839       7.834       7.757       7.487       7.355       7.318       7.307       7.305    
        7.336       7.431       7.450       7.435       7.343       7.340       7.366       7.387       7.397       0.000    
   7    0.000       7.447       7.452       7.446       7.408       7.338       7.307       7.297       7.286       7.269    
        7.292       7.321       7.332       7.331       7.315       7.351       7.384       7.404       0.000       0.000    
   8    0.000       7.317       7.327       7.331       7.326       7.317       7.314       7.307       7.286       7.214    
        7.288       7.315       7.324       7.317       7.262       7.357       7.400       7.425       0.000       0.000    
   9    0.000       0.000       7.322       7.325       7.327       7.328       7.328       7.323       7.312       7.295    
        7.315       7.330       7.340       7.344       7.345       7.385       7.420       7.451       7.484       7.501    
  10    0.000       0.000       7.330       7.333       7.335       7.337       7.337       7.333       7.326       7.321    
        7.330       7.341       7.351       7.360       7.373       7.401       7.431       7.460       7.487       7.501    

 HEAD WILL BE SAVED ON UNIT   51 AT END OF TIME STEP   84, STRESS PERIOD    2

 DRAWDOWN WILL BE SAVED ON UNIT   52 AT END OF TIME STEP   84, STRESS PERIOD    2
1
  VOLUMETRIC BUDGET FOR ENTIRE MODEL AT END OF TIME STEP   84, STRESS PERIOD   2
  ------------------------------------------------------------------------------

     CUMULATIVE VOLUMES      L**3       RATES FOR THIS TIME STEP      L**3/T
     ------------------                 ------------------------

           IN:                                      IN:
           ---                                      ---
             STORAGE =        2445.6418               STORAGE =           9.2115
       CONSTANT HEAD =           0.0000         CONSTANT HEAD =           0.0000
               WELLS =           0.0000                 WELLS =           0.0000
       RIVER LEAKAGE =      807250.2500         RIVER LEAKAGE =        3103.6660
            RECHARGE =       50808.0078              RECHARGE =         599.7326

            TOTAL IN =      860503.8750              TOTAL IN =        3712.6101

          OUT:                                     OUT:
          ----                                     ----
             STORAGE =      838791.8750               STORAGE =        3458.8860
       CONSTANT HEAD =           0.0000         CONSTANT HEAD =           0.0000
               WELLS =       21547.2949                 WELLS =         254.5907
       RIVER LEAKAGE =         268.8873         RIVER LEAKAGE =           0.0000
            RECHARGE =           0.0000              RECHARGE =           0.0000

           TOTAL OUT =      860608.0625             TOTAL OUT =        3713.4766

            IN - OUT =        -104.1875              IN - OUT =          -0.8665

 PERCENT DISCREPANCY =          -0.01     PERCENT DISCREPANCY =          -0.02






         TIME SUMMARY AT END OF TIME STEP   84 IN STRESS PERIOD    2
                    SECONDS     MINUTES      HOURS       DAYS        YEARS
                    -----------------------------------------------------------
   TIME STEP LENGTH  86400.      1440.0      24.000      1.0000     2.73785E-03
 STRESS PERIOD TIME 7.25760E+06 1.20960E+05  2016.0      84.000     0.22998    
         TOTAL TIME 7.34400E+06 1.22400E+05  2040.0      85.000     0.23272    
1

 SOLVING FOR HEAD 

    ------------------------------------------------
       NWT REQUIRED            3 OUTER ITERATIONS 
       AND A TOTAL OF          3 INNER ITERATIONS.
    ------------------------------------------------

 OUTPUT CONTROL FOR STRESS PERIOD    2   TIME STEP   85
    SAVE HEAD FOR ALL LAYERS
    SAVE DRAWDOWN FOR ALL LAYERS
    SAVE BUDGET
    PRINT HEAD FOR ALL LAYERS
    PRINT BUDGET
1
              HEAD IN LAYER   1 AT END OF TIME STEP  85 IN STRESS PERIOD    2
  ---------------------------------------------------------------------------

            1           2           3           4           5           6           7           8           9          10
           11          12          13          14          15          16          17          18          19          20
 ........................................................................................................................
   1    0.000       0.000       0.000       0.000       0.000       7.209       7.198       7.223       7.239       7.249    
        7.257       7.292       7.496       7.828       7.501       7.308       7.295       7.306       0.000       0.000    
   2    0.000       0.000       0.000       0.000       7.235       7.242       7.195       7.260       7.270       7.277    
        7.282       7.308       7.469       7.830       7.463       7.286       7.291       7.308       0.000       0.000    
   3    0.000       0.000       0.000       0.000       7.311       7.421       7.459       7.452       7.426       7.423    
        7.423       7.425       7.470       7.833       7.410       7.219       7.286       7.316       0.000       0.000    
   4    0.000       0.000       0.000       7.442       7.523       7.828       7.825       7.827       7.831       7.830    
        7.830       7.821       7.623       7.837       7.420       7.296       7.314       7.337       0.000       0.000    
   5    0.000       0.000       7.778       7.803       7.837       7.824       7.562       7.476       7.445       7.450    
        7.524       7.828       7.837       7.816       7.416       7.328       7.343       7.368       7.391       0.000    
   6    0.000       7.838       7.839       7.834       7.757       7.489       7.356       7.319       7.307       7.306    
        7.338       7.432       7.451       7.437       7.344       7.340       7.366       7.387       7.397       0.000    
   7    0.000       7.449       7.453       7.448       7.410       7.339       7.307       7.297       7.286       7.269    
        7.293       7.322       7.333       7.331       7.315       7.351       7.384       7.404       0.000       0.000    
   8    0.000       7.318       7.328       7.332       7.327       7.318       7.314       7.307       7.286       7.214    
        7.288       7.315       7.324       7.318       7.262       7.357       7.400       7.425       0.000       0.000    
   9    0.000       0.000       7.322       7.325       7.327       7.328       7.328       7.323       7.312       7.295    
        7.315       7.330       7.340       7.344       7.345       7.385       7.420       7.451       7.484       7.501    
  10    0.000       0.000       7.330       7.333       7.335       7.337       7.337       7.333       7.326       7.321    
        7.330       7.341       7.351       7.360       7.373       7.401       7.431       7.460       7.487       7.501    

 HEAD WILL BE SAVED ON UNIT   51 AT END OF TIME STEP   85, STRESS PERIOD    2

 DRAWDOWN WILL BE SAVED ON UNIT   52 AT END OF TIME STEP   85, STRESS PERIOD    2
1
  VOLUMETRIC BUDGET FOR ENTIRE MODEL AT END OF TIME STEP   85, STRESS PERIOD   2
  ------------------------------------------------------------------------------

     CUMULATIVE VOLUMES      L**3       RATES FOR THIS TIME STEP      L**3/T
     ------------------                 ------------------------

           IN:                                      IN:
           ---                                      ---
             STORAGE =        2454.5837               STORAGE =           8.9419
       CONSTANT HEAD =           0.0000         CONSTANT HEAD =           0.0000
               WELLS =           0.0000                 WELLS =           0.0000
       RIVER LEAKAGE =      810335.4375         RIVER LEAKAGE =        3085.1572
            RECHARGE =       51407.7422              RECHARGE =         599.7326

            TOTAL IN =      864197.7500              TOTAL IN =        3693.8318

          OUT:                                     OUT:
          ----                                     ----
             STORAGE =      842232.0000               STORAGE =        3440.1030
       CONSTANT HEAD =           0.0000         CONSTANT HEAD =           0.0000
               WELLS =       21801.8848                 WELLS =         254.5907
       RIVER LEAKAGE =         268.8873         RIVER LEAKAGE =           0.0000
            RECHARGE =           0.0000              RECHARGE =           0.0000

           TOTAL OUT =      864302.7500             TOTAL OUT =        3694.6936

            IN - OUT =        -105.0000              IN - OUT =          -0.8618

 PERCENT DISCREPANCY =          -0.01     PERCENT DISCREPANCY =          -0.02






         TIME SUMMARY AT END OF TIME STEP   85 IN STRESS PERIOD    2
                    SECONDS     MINUTES      HOURS       DAYS        YEARS
                    -----------------------------------------------------------
   TIME STEP LENGTH  86400.      1440.0      24.000      1.0000     2.73785E-03
 STRESS PERIOD TIME 7.34400E+06 1.22400E+05  2040.0      85.000     0.23272    
         TOTAL TIME 7.43040E+06 1.23840E+05  2064.0      86.000     0.23546    
1

 SOLVING FOR HEAD 

    ------------------------------------------------
       NWT REQUIRED            3 OUTER ITERATIONS 
       AND A TOTAL OF          3 INNER ITERATIONS.
    ------------------------------------------------

 OUTPUT CONTROL FOR STRESS PERIOD    2   TIME STEP   86
    SAVE HEAD FOR ALL LAYERS
    SAVE DRAWDOWN FOR ALL LAYERS
    SAVE BUDGET
    PRINT HEAD FOR ALL LAYERS
    PRINT BUDGET
1
              HEAD IN LAYER   1 AT END OF TIME STEP  86 IN STRESS PERIOD    2
  ---------------------------------------------------------------------------

            1           2           3           4           5           6           7           8           9          10
           11          12          13          14          15          16          17          18          19          20
 ........................................................................................................................
   1    0.000       0.000       0.000       0.000       0.000       7.210       7.199       7.223       7.240       7.250    
        7.257       7.293       7.498       7.828       7.503       7.309       7.295       7.306       0.000       0.000    
   2    0.000       0.000       0.000       0.000       7.236       7.243       7.196       7.261       7.271       7.278    
        7.283       7.310       7.471       7.830       7.465       7.287       7.291       7.308       0.000       0.000    
   3    0.000       0.000       0.000       0.000       7.312       7.423       7.461       7.454       7.428       7.425    
        7.425       7.427       7.473       7.833       7.412       7.219       7.286       7.316       0.000       0.000    
   4    0.000       0.000       0.000       7.445       7.525       7.828       7.825       7.827       7.831       7.830    
        7.830       7.821       7.625       7.837       7.421       7.297       7.314       7.337       0.000       0.000    
   5    0.000       0.000       7.780       7.803       7.837       7.824       7.564       7.477       7.446       7.452    
        7.526       7.828       7.837       7.816       7.417       7.329       7.343       7.368       7.391       0.000    
   6    0.000       7.838       7.839       7.834       7.758       7.491       7.358       7.320       7.308       7.307    
        7.339       7.434       7.453       7.438       7.345       7.340       7.366       7.387       7.397       0.000    
   7    0.000       7.451       7.455       7.450       7.411       7.340       7.308       7.297       7.286       7.270    
        7.293       7.323       7.334       7.332       7.316       7.351       7.384       7.404       0.000       0.000    
   8    0.000       7.319       7.329       7.333       7.327       7.318       7.314       7.307       7.286       7.214    
        7.288       7.315       7.324       7.318       7.262       7.357       7.400       7.425       0.000       0.000    
   9    0.000       0.000       7.322       7.325       7.327       7.329       7.328       7.323       7.312       7.294    
        7.315       7.330       7.340       7.344       7.345       7.385       7.420       7.451       7.484       7.501    
  10    0.000       0.000       7.330       7.333       7.335       7.337       7.337       7.333       7.326       7.321    
        7.330       7.341       7.351       7.360       7.373       7.401       7.431       7.461       7.487       7.501    

 HEAD WILL BE SAVED ON UNIT   51 AT END OF TIME STEP   86, STRESS PERIOD    2

 DRAWDOWN WILL BE SAVED ON UNIT   52 AT END OF TIME STEP   86, STRESS PERIOD    2
1
  VOLUMETRIC BUDGET FOR ENTIRE MODEL AT END OF TIME STEP   86, STRESS PERIOD   2
  ------------------------------------------------------------------------------

     CUMULATIVE VOLUMES      L**3       RATES FOR THIS TIME STEP      L**3/T
     ------------------                 ------------------------

           IN:                                      IN:
           ---                                      ---
             STORAGE =        2463.2571               STORAGE =           8.6734
       CONSTANT HEAD =           0.0000         CONSTANT HEAD =           0.0000
               WELLS =           0.0000                 WELLS =           0.0000
       RIVER LEAKAGE =      813402.3125         RIVER LEAKAGE =        3066.9004
            RECHARGE =       52007.4766              RECHARGE =         599.7326

            TOTAL IN =      867873.0625              TOTAL IN =        3675.3064

          OUT:                                     OUT:
          ----                                     ----
             STORAGE =      845653.5625               STORAGE =        3421.5732
       CONSTANT HEAD =           0.0000         CONSTANT HEAD =           0.0000
               WELLS =       22056.4746                 WELLS =         254.5907
       RIVER LEAKAGE =         268.8873         RIVER LEAKAGE =           0.0000
            RECHARGE =           0.0000              RECHARGE =           0.0000

           TOTAL OUT =      867978.9375             TOTAL OUT =        3676.1638

            IN - OUT =        -105.8750              IN - OUT =          -0.8574

 PERCENT DISCREPANCY =          -0.01     PERCENT DISCREPANCY =          -0.02






         TIME SUMMARY AT END OF TIME STEP   86 IN STRESS PERIOD    2
                    SECONDS     MINUTES      HOURS       DAYS        YEARS
                    -----------------------------------------------------------
   TIME STEP LENGTH  86400.      1440.0      24.000      1.0000     2.73785E-03
 STRESS PERIOD TIME 7.43040E+06 1.23840E+05  2064.0      86.000     0.23546    
         TOTAL TIME 7.51680E+06 1.25280E+05  2088.0      87.000     0.23819    
1

 SOLVING FOR HEAD 

    ------------------------------------------------
       NWT REQUIRED            3 OUTER ITERATIONS 
       AND A TOTAL OF          3 INNER ITERATIONS.
    ------------------------------------------------

 OUTPUT CONTROL FOR STRESS PERIOD    2   TIME STEP   87
    SAVE HEAD FOR ALL LAYERS
    SAVE DRAWDOWN FOR ALL LAYERS
    SAVE BUDGET
    PRINT HEAD FOR ALL LAYERS
    PRINT BUDGET
1
              HEAD IN LAYER   1 AT END OF TIME STEP  87 IN STRESS PERIOD    2
  ---------------------------------------------------------------------------

            1           2           3           4           5           6           7           8           9          10
           11          12          13          14          15          16          17          18          19          20
 ........................................................................................................................
   1    0.000       0.000       0.000       0.000       0.000       7.210       7.199       7.223       7.240       7.250    
        7.257       7.294       7.500       7.828       7.505       7.310       7.295       7.307       0.000       0.000    
   2    0.000       0.000       0.000       0.000       7.236       7.244       7.197       7.261       7.272       7.279    
        7.284       7.311       7.473       7.830       7.467       7.288       7.291       7.308       0.000       0.000    
   3    0.000       0.000       0.000       0.000       7.314       7.424       7.462       7.456       7.429       7.427    
        7.426       7.429       7.475       7.833       7.413       7.220       7.286       7.316       0.000       0.000    
   4    0.000       0.000       0.000       7.447       7.527       7.828       7.825       7.827       7.831       7.830    
        7.830       7.821       7.628       7.837       7.422       7.297       7.314       7.337       0.000       0.000    
   5    0.000       0.000       7.781       7.804       7.838       7.824       7.566       7.479       7.448       7.454    
        7.527       7.828       7.837       7.816       7.418       7.329       7.343       7.368       7.391       0.000    
   6    0.000       7.838       7.839       7.834       7.759       7.493       7.359       7.321       7.309       7.308    
        7.340       7.435       7.454       7.439       7.346       7.340       7.366       7.387       7.397       0.000    
   7    0.000       7.452       7.456       7.451       7.413       7.341       7.308       7.298       7.286       7.270    
        7.293       7.323       7.334       7.333       7.316       7.351       7.384       7.404       0.000       0.000    
   8    0.000       7.320       7.330       7.333       7.328       7.318       7.314       7.307       7.286       7.214    
        7.288       7.315       7.324       7.318       7.262       7.357       7.400       7.425       0.000       0.000    
   9    0.000       0.000       7.322       7.325       7.327       7.329       7.328       7.323       7.312       7.294    
        7.315       7.330       7.340       7.344       7.345       7.385       7.420       7.451       7.484       7.501    
  10    0.000       0.000       7.330       7.333       7.335       7.337       7.337       7.333       7.326       7.321    
        7.330       7.341       7.351       7.360       7.373       7.401       7.431       7.461       7.487       7.501    

 HEAD WILL BE SAVED ON UNIT   51 AT END OF TIME STEP   87, STRESS PERIOD    2

 DRAWDOWN WILL BE SAVED ON UNIT   52 AT END OF TIME STEP   87, STRESS PERIOD    2
1
  VOLUMETRIC BUDGET FOR ENTIRE MODEL AT END OF TIME STEP   87, STRESS PERIOD   2
  ------------------------------------------------------------------------------

     CUMULATIVE VOLUMES      L**3       RATES FOR THIS TIME STEP      L**3/T
     ------------------                 ------------------------

           IN:                                      IN:
           ---                                      ---
             STORAGE =        2471.6633               STORAGE =           8.4064
       CONSTANT HEAD =           0.0000         CONSTANT HEAD =           0.0000
               WELLS =           0.0000                 WELLS =           0.0000
       RIVER LEAKAGE =      816451.1875         RIVER LEAKAGE =        3048.8984
            RECHARGE =       52607.2109              RECHARGE =         599.7326

            TOTAL IN =      871530.0625              TOTAL IN =        3657.0374

          OUT:                                     OUT:
          ----                                     ----
             STORAGE =      849056.8750               STORAGE =        3403.2996
       CONSTANT HEAD =           0.0000         CONSTANT HEAD =           0.0000
               WELLS =       22311.0645                 WELLS =         254.5907
       RIVER LEAKAGE =         268.8873         RIVER LEAKAGE =           0.0000
            RECHARGE =           0.0000              RECHARGE =           0.0000

           TOTAL OUT =      871636.8125             TOTAL OUT =        3657.8901

            IN - OUT =        -106.7500              IN - OUT =          -0.8528

 PERCENT DISCREPANCY =          -0.01     PERCENT DISCREPANCY =          -0.02






         TIME SUMMARY AT END OF TIME STEP   87 IN STRESS PERIOD    2
                    SECONDS     MINUTES      HOURS       DAYS        YEARS
                    -----------------------------------------------------------
   TIME STEP LENGTH  86400.      1440.0      24.000      1.0000     2.73785E-03
 STRESS PERIOD TIME 7.51680E+06 1.25280E+05  2088.0      87.000     0.23819    
         TOTAL TIME 7.60320E+06 1.26720E+05  2112.0      88.000     0.24093    
1

 SOLVING FOR HEAD 

    ------------------------------------------------
       NWT REQUIRED            3 OUTER ITERATIONS 
       AND A TOTAL OF          3 INNER ITERATIONS.
    ------------------------------------------------

 OUTPUT CONTROL FOR STRESS PERIOD    2   TIME STEP   88
    SAVE HEAD FOR ALL LAYERS
    SAVE DRAWDOWN FOR ALL LAYERS
    SAVE BUDGET
    PRINT HEAD FOR ALL LAYERS
    PRINT BUDGET
1
              HEAD IN LAYER   1 AT END OF TIME STEP  88 IN STRESS PERIOD    2
  ---------------------------------------------------------------------------

            1           2           3           4           5           6           7           8           9          10
           11          12          13          14          15          16          17          18          19          20
 ........................................................................................................................
   1    0.000       0.000       0.000       0.000       0.000       7.210       7.199       7.224       7.240       7.250    
        7.258       7.295       7.502       7.828       7.507       7.310       7.295       7.307       0.000       0.000    
   2    0.000       0.000       0.000       0.000       7.237       7.244       7.198       7.262       7.272       7.280    
        7.285       7.312       7.475       7.830       7.469       7.288       7.291       7.308       0.000       0.000    
   3    0.000       0.000       0.000       0.000       7.315       7.426       7.464       7.457       7.431       7.428    
        7.428       7.431       7.478       7.833       7.415       7.220       7.286       7.316       0.000       0.000    
   4    0.000       0.000       0.000       7.450       7.529       7.829       7.825       7.827       7.831       7.831    
        7.830       7.822       7.630       7.837       7.424       7.298       7.314       7.337       0.000       0.000    
   5    0.000       0.000       7.783       7.804       7.838       7.825       7.568       7.481       7.450       7.455    
        7.529       7.828       7.837       7.816       7.420       7.330       7.343       7.368       7.392       0.000    
   6    0.000       7.838       7.839       7.834       7.759       7.495       7.361       7.322       7.310       7.309    
        7.341       7.436       7.456       7.440       7.346       7.341       7.366       7.387       7.397       0.000    
   7    0.000       7.454       7.458       7.453       7.414       7.342       7.309       7.298       7.286       7.270    
        7.294       7.324       7.335       7.333       7.316       7.351       7.384       7.404       0.000       0.000    
   8    0.000       7.321       7.331       7.334       7.329       7.319       7.314       7.307       7.286       7.213    
        7.289       7.315       7.324       7.318       7.262       7.356       7.400       7.425       0.000       0.000    
   9    0.000       0.000       7.322       7.325       7.328       7.329       7.328       7.323       7.312       7.294    
        7.315       7.330       7.340       7.344       7.345       7.385       7.420       7.451       7.484       7.501    
  10    0.000       0.000       7.331       7.333       7.336       7.337       7.337       7.333       7.326       7.321    
        7.330       7.341       7.351       7.360       7.373       7.401       7.431       7.461       7.487       7.501    

 HEAD WILL BE SAVED ON UNIT   51 AT END OF TIME STEP   88, STRESS PERIOD    2

 DRAWDOWN WILL BE SAVED ON UNIT   52 AT END OF TIME STEP   88, STRESS PERIOD    2
1
  VOLUMETRIC BUDGET FOR ENTIRE MODEL AT END OF TIME STEP   88, STRESS PERIOD   2
  ------------------------------------------------------------------------------

     CUMULATIVE VOLUMES      L**3       RATES FOR THIS TIME STEP      L**3/T
     ------------------                 ------------------------

           IN:                                      IN:
           ---                                      ---
             STORAGE =        2479.8037               STORAGE =           8.1404
       CONSTANT HEAD =           0.0000         CONSTANT HEAD =           0.0000
               WELLS =           0.0000                 WELLS =           0.0000
       RIVER LEAKAGE =      819482.3125         RIVER LEAKAGE =        3031.1531
            RECHARGE =       53206.9453              RECHARGE =         599.7326

            TOTAL IN =      875169.0625              TOTAL IN =        3639.0261

          OUT:                                     OUT:
          ----                                     ----
             STORAGE =      852442.1875               STORAGE =        3385.2837
       CONSTANT HEAD =           0.0000         CONSTANT HEAD =           0.0000
               WELLS =       22565.6543                 WELLS =         254.5907
       RIVER LEAKAGE =         268.8873         RIVER LEAKAGE =           0.0000
            RECHARGE =           0.0000              RECHARGE =           0.0000

           TOTAL OUT =      875276.6875             TOTAL OUT =        3639.8743

            IN - OUT =        -107.6250              IN - OUT =          -0.8481

 PERCENT DISCREPANCY =          -0.01     PERCENT DISCREPANCY =          -0.02






         TIME SUMMARY AT END OF TIME STEP   88 IN STRESS PERIOD    2
                    SECONDS     MINUTES      HOURS       DAYS        YEARS
                    -----------------------------------------------------------
   TIME STEP LENGTH  86400.      1440.0      24.000      1.0000     2.73785E-03
 STRESS PERIOD TIME 7.60320E+06 1.26720E+05  2112.0      88.000     0.24093    
         TOTAL TIME 7.68960E+06 1.28160E+05  2136.0      89.000     0.24367    
1

 SOLVING FOR HEAD 

    ------------------------------------------------
       NWT REQUIRED            3 OUTER ITERATIONS 
       AND A TOTAL OF          3 INNER ITERATIONS.
    ------------------------------------------------

 OUTPUT CONTROL FOR STRESS PERIOD    2   TIME STEP   89
    SAVE HEAD FOR ALL LAYERS
    SAVE DRAWDOWN FOR ALL LAYERS
    SAVE BUDGET
    PRINT HEAD FOR ALL LAYERS
    PRINT BUDGET
1
              HEAD IN LAYER   1 AT END OF TIME STEP  89 IN STRESS PERIOD    2
  ---------------------------------------------------------------------------

            1           2           3           4           5           6           7           8           9          10
           11          12          13          14          15          16          17          18          19          20
 ........................................................................................................................
   1    0.000       0.000       0.000       0.000       0.000       7.210       7.199       7.224       7.240       7.250    
        7.258       7.296       7.504       7.829       7.509       7.311       7.295       7.307       0.000       0.000    
   2    0.000       0.000       0.000       0.000       7.237       7.245       7.199       7.263       7.273       7.281    
        7.286       7.314       7.477       7.830       7.470       7.289       7.291       7.309       0.000       0.000    
   3    0.000       0.000       0.000       0.000       7.317       7.427       7.466       7.459       7.433       7.430    
        7.430       7.433       7.480       7.833       7.416       7.221       7.286       7.316       0.000       0.000    
   4    0.000       0.000       0.000       7.453       7.531       7.829       7.825       7.827       7.831       7.831    
        7.830       7.822       7.632       7.837       7.425       7.298       7.314       7.337       0.000       0.000    
   5    0.000       0.000       7.785       7.804       7.838       7.825       7.569       7.483       7.452       7.457    
        7.531       7.828       7.837       7.816       7.421       7.330       7.343       7.368       7.392       0.000    
   6    0.000       7.838       7.839       7.835       7.760       7.497       7.362       7.323       7.311       7.310    
        7.342       7.438       7.457       7.442       7.347       7.341       7.367       7.387       7.397       0.000    
   7    0.000       7.455       7.460       7.454       7.416       7.343       7.310       7.298       7.287       7.270    
        7.294       7.324       7.336       7.334       7.316       7.351       7.384       7.404       0.000       0.000    
   8    0.000       7.322       7.331       7.335       7.329       7.319       7.314       7.307       7.286       7.213    
        7.289       7.315       7.325       7.318       7.262       7.356       7.400       7.425       0.000       0.000    
   9    0.000       0.000       7.323       7.325       7.328       7.329       7.328       7.323       7.312       7.294    
        7.315       7.330       7.340       7.344       7.345       7.385       7.420       7.451       7.484       7.501    
  10    0.000       0.000       7.331       7.333       7.336       7.338       7.337       7.333       7.326       7.321    
        7.330       7.341       7.351       7.360       7.373       7.401       7.431       7.461       7.487       7.501    

 HEAD WILL BE SAVED ON UNIT   51 AT END OF TIME STEP   89, STRESS PERIOD    2

 DRAWDOWN WILL BE SAVED ON UNIT   52 AT END OF TIME STEP   89, STRESS PERIOD    2
1
  VOLUMETRIC BUDGET FOR ENTIRE MODEL AT END OF TIME STEP   89, STRESS PERIOD   2
  ------------------------------------------------------------------------------

     CUMULATIVE VOLUMES      L**3       RATES FOR THIS TIME STEP      L**3/T
     ------------------                 ------------------------

           IN:                                      IN:
           ---                                      ---
             STORAGE =        2487.6797               STORAGE =           7.8759
       CONSTANT HEAD =           0.0000         CONSTANT HEAD =           0.0000
               WELLS =           0.0000                 WELLS =           0.0000
       RIVER LEAKAGE =      822495.9375         RIVER LEAKAGE =        3013.6499
            RECHARGE =       53806.6797              RECHARGE =         599.7326

            TOTAL IN =      878790.3125              TOTAL IN =        3621.2585

          OUT:                                     OUT:
          ----                                     ----
             STORAGE =      855809.6875               STORAGE =        3367.5117
       CONSTANT HEAD =           0.0000         CONSTANT HEAD =           0.0000
               WELLS =       22820.2441                 WELLS =         254.5907
       RIVER LEAKAGE =         268.8873         RIVER LEAKAGE =           0.0000
            RECHARGE =           0.0000              RECHARGE =           0.0000

           TOTAL OUT =      878898.8125             TOTAL OUT =        3622.1023

            IN - OUT =        -108.5000              IN - OUT =          -0.8438

 PERCENT DISCREPANCY =          -0.01     PERCENT DISCREPANCY =          -0.02






         TIME SUMMARY AT END OF TIME STEP   89 IN STRESS PERIOD    2
                    SECONDS     MINUTES      HOURS       DAYS        YEARS
                    -----------------------------------------------------------
   TIME STEP LENGTH  86400.      1440.0      24.000      1.0000     2.73785E-03
 STRESS PERIOD TIME 7.68960E+06 1.28160E+05  2136.0      89.000     0.24367    
         TOTAL TIME 7.77600E+06 1.29600E+05  2160.0      90.000     0.24641    
1

 SOLVING FOR HEAD 

    ------------------------------------------------
       NWT REQUIRED            3 OUTER ITERATIONS 
       AND A TOTAL OF          3 INNER ITERATIONS.
    ------------------------------------------------

 OUTPUT CONTROL FOR STRESS PERIOD    2   TIME STEP   90
    SAVE HEAD FOR ALL LAYERS
    SAVE DRAWDOWN FOR ALL LAYERS
    SAVE BUDGET
    PRINT HEAD FOR ALL LAYERS
    PRINT BUDGET
1
              HEAD IN LAYER   1 AT END OF TIME STEP  90 IN STRESS PERIOD    2
  ---------------------------------------------------------------------------

            1           2           3           4           5           6           7           8           9          10
           11          12          13          14          15          16          17          18          19          20
 ........................................................................................................................
   1    0.000       0.000       0.000       0.000       0.000       7.211       7.200       7.224       7.241       7.251    
        7.259       7.297       7.506       7.829       7.510       7.312       7.296       7.307       0.000       0.000    
   2    0.000       0.000       0.000       0.000       7.238       7.246       7.199       7.264       7.274       7.281    
        7.287       7.315       7.479       7.830       7.472       7.290       7.291       7.309       0.000       0.000    
   3    0.000       0.000       0.000       0.000       7.318       7.429       7.467       7.461       7.434       7.431    
        7.431       7.435       7.482       7.833       7.418       7.221       7.286       7.316       0.000       0.000    
   4    0.000       0.000       0.000       7.455       7.533       7.829       7.825       7.828       7.832       7.831    
        7.830       7.822       7.635       7.837       7.427       7.299       7.314       7.337       0.000       0.000    
   5    0.000       0.000       7.786       7.805       7.838       7.825       7.571       7.485       7.453       7.459    
        7.533       7.828       7.837       7.817       7.422       7.331       7.343       7.368       7.392       0.000    
   6    0.000       7.838       7.839       7.835       7.760       7.498       7.364       7.324       7.312       7.310    
        7.344       7.439       7.459       7.443       7.348       7.341       7.367       7.387       7.397       0.000    
   7    0.000       7.457       7.461       7.456       7.417       7.344       7.310       7.299       7.287       7.270    
        7.295       7.325       7.336       7.334       7.316       7.351       7.384       7.404       0.000       0.000    
   8    0.000       7.323       7.332       7.335       7.330       7.319       7.314       7.307       7.286       7.213    
        7.289       7.316       7.325       7.318       7.262       7.356       7.400       7.425       0.000       0.000    
   9    0.000       0.000       7.323       7.326       7.328       7.329       7.328       7.323       7.312       7.294    
        7.315       7.331       7.340       7.344       7.345       7.385       7.420       7.451       7.484       7.501    
  10    0.000       0.000       7.331       7.333       7.336       7.338       7.337       7.333       7.327       7.321    
        7.330       7.341       7.351       7.360       7.373       7.401       7.431       7.461       7.487       7.501    

 HEAD WILL BE SAVED ON UNIT   51 AT END OF TIME STEP   90, STRESS PERIOD    2

 DRAWDOWN WILL BE SAVED ON UNIT   52 AT END OF TIME STEP   90, STRESS PERIOD    2
1
  VOLUMETRIC BUDGET FOR ENTIRE MODEL AT END OF TIME STEP   90, STRESS PERIOD   2
  ------------------------------------------------------------------------------

     CUMULATIVE VOLUMES      L**3       RATES FOR THIS TIME STEP      L**3/T
     ------------------                 ------------------------

           IN:                                      IN:
           ---                                      ---
             STORAGE =        2495.2920               STORAGE =           7.6124
       CONSTANT HEAD =           0.0000         CONSTANT HEAD =           0.0000
               WELLS =           0.0000                 WELLS =           0.0000
       RIVER LEAKAGE =      825492.3125         RIVER LEAKAGE =        2996.3767
            RECHARGE =       54406.4141              RECHARGE =         599.7326

            TOTAL IN =      882394.0625              TOTAL IN =        3603.7217

          OUT:                                     OUT:
          ----                                     ----
             STORAGE =      859159.6875               STORAGE =        3349.9705
       CONSTANT HEAD =           0.0000         CONSTANT HEAD =           0.0000
               WELLS =       23074.8340                 WELLS =         254.5907
       RIVER LEAKAGE =         268.8873         RIVER LEAKAGE =           0.0000
            RECHARGE =           0.0000              RECHARGE =           0.0000

           TOTAL OUT =      882503.3750             TOTAL OUT =        3604.5610

            IN - OUT =        -109.3125              IN - OUT =          -0.8394

 PERCENT DISCREPANCY =          -0.01     PERCENT DISCREPANCY =          -0.02






         TIME SUMMARY AT END OF TIME STEP   90 IN STRESS PERIOD    2
                    SECONDS     MINUTES      HOURS       DAYS        YEARS
                    -----------------------------------------------------------
   TIME STEP LENGTH  86400.      1440.0      24.000      1.0000     2.73785E-03
 STRESS PERIOD TIME 7.77600E+06 1.29600E+05  2160.0      90.000     0.24641    
         TOTAL TIME 7.86240E+06 1.31040E+05  2184.0      91.000     0.24914    
1

 SOLVING FOR HEAD 

    ------------------------------------------------
       NWT REQUIRED            3 OUTER ITERATIONS 
       AND A TOTAL OF          3 INNER ITERATIONS.
    ------------------------------------------------

 OUTPUT CONTROL FOR STRESS PERIOD    2   TIME STEP   91
    SAVE HEAD FOR ALL LAYERS
    SAVE DRAWDOWN FOR ALL LAYERS
    SAVE BUDGET
    PRINT HEAD FOR ALL LAYERS
    PRINT BUDGET
1
              HEAD IN LAYER   1 AT END OF TIME STEP  91 IN STRESS PERIOD    2
  ---------------------------------------------------------------------------

            1           2           3           4           5           6           7           8           9          10
           11          12          13          14          15          16          17          18          19          20
 ........................................................................................................................
   1    0.000       0.000       0.000       0.000       0.000       7.211       7.200       7.224       7.241       7.251    
        7.259       7.298       7.508       7.829       7.512       7.313       7.296       7.307       0.000       0.000    
   2    0.000       0.000       0.000       0.000       7.239       7.247       7.200       7.265       7.275       7.282    
        7.288       7.316       7.481       7.830       7.474       7.291       7.292       7.309       0.000       0.000    
   3    0.000       0.000       0.000       0.000       7.320       7.430       7.469       7.462       7.436       7.433    
        7.433       7.437       7.485       7.833       7.419       7.222       7.287       7.316       0.000       0.000    
   4    0.000       0.000       0.000       7.458       7.535       7.829       7.825       7.828       7.832       7.831    
        7.830       7.822       7.637       7.837       7.428       7.299       7.314       7.337       0.000       0.000    
   5    0.000       0.000       7.788       7.805       7.838       7.825       7.573       7.487       7.455       7.461    
        7.535       7.828       7.837       7.817       7.423       7.331       7.343       7.368       7.392       0.000    
   6    0.000       7.838       7.839       7.835       7.761       7.500       7.365       7.325       7.312       7.311    
        7.345       7.440       7.460       7.444       7.349       7.341       7.367       7.387       7.397       0.000    
   7    0.000       7.459       7.463       7.457       7.419       7.345       7.311       7.299       7.287       7.271    
        7.295       7.326       7.337       7.335       7.317       7.351       7.384       7.404       0.000       0.000    
   8    0.000       7.324       7.333       7.336       7.330       7.320       7.315       7.307       7.286       7.213    
        7.289       7.316       7.325       7.318       7.262       7.356       7.400       7.425       0.000       0.000    
   9    0.000       0.000       7.323       7.326       7.328       7.329       7.328       7.323       7.312       7.294    
        7.315       7.331       7.340       7.344       7.345       7.385       7.420       7.451       7.484       7.501    
  10    0.000       0.000       7.331       7.333       7.336       7.338       7.337       7.333       7.327       7.321    
        7.330       7.341       7.351       7.360       7.373       7.401       7.431       7.461       7.487       7.501    

 HEAD WILL BE SAVED ON UNIT   51 AT END OF TIME STEP   91, STRESS PERIOD    2

 DRAWDOWN WILL BE SAVED ON UNIT   52 AT END OF TIME STEP   91, STRESS PERIOD    2
1
  VOLUMETRIC BUDGET FOR ENTIRE MODEL AT END OF TIME STEP   91, STRESS PERIOD   2
  ------------------------------------------------------------------------------

     CUMULATIVE VOLUMES      L**3       RATES FOR THIS TIME STEP      L**3/T
     ------------------                 ------------------------

           IN:                                      IN:
           ---                                      ---
             STORAGE =        2502.6421               STORAGE =           7.3500
       CONSTANT HEAD =           0.0000         CONSTANT HEAD =           0.0000
               WELLS =           0.0000                 WELLS =           0.0000
       RIVER LEAKAGE =      828471.6875         RIVER LEAKAGE =        2979.3523
            RECHARGE =       55006.1484              RECHARGE =         599.7326

            TOTAL IN =      885980.4375              TOTAL IN =        3586.4351

          OUT:                                     OUT:
          ----                                     ----
             STORAGE =      862492.3750               STORAGE =        3332.6794
       CONSTANT HEAD =           0.0000         CONSTANT HEAD =           0.0000
               WELLS =       23329.4238                 WELLS =         254.5907
       RIVER LEAKAGE =         268.8873         RIVER LEAKAGE =           0.0000
            RECHARGE =           0.0000              RECHARGE =           0.0000

           TOTAL OUT =      886090.6875             TOTAL OUT =        3587.2700

            IN - OUT =        -110.2500              IN - OUT =          -0.8350

 PERCENT DISCREPANCY =          -0.01     PERCENT DISCREPANCY =          -0.02






         TIME SUMMARY AT END OF TIME STEP   91 IN STRESS PERIOD    2
                    SECONDS     MINUTES      HOURS       DAYS        YEARS
                    -----------------------------------------------------------
   TIME STEP LENGTH  86400.      1440.0      24.000      1.0000     2.73785E-03
 STRESS PERIOD TIME 7.86240E+06 1.31040E+05  2184.0      91.000     0.24914    
         TOTAL TIME 7.94880E+06 1.32480E+05  2208.0      92.000     0.25188    
1

 SOLVING FOR HEAD 

    ------------------------------------------------
       NWT REQUIRED            3 OUTER ITERATIONS 
       AND A TOTAL OF          3 INNER ITERATIONS.
    ------------------------------------------------

 OUTPUT CONTROL FOR STRESS PERIOD    2   TIME STEP   92
    SAVE HEAD FOR ALL LAYERS
    SAVE DRAWDOWN FOR ALL LAYERS
    SAVE BUDGET
    PRINT HEAD FOR ALL LAYERS
    PRINT BUDGET
1
              HEAD IN LAYER   1 AT END OF TIME STEP  92 IN STRESS PERIOD    2
  ---------------------------------------------------------------------------

            1           2           3           4           5           6           7           8           9          10
           11          12          13          14          15          16          17          18          19          20
 ........................................................................................................................
   1    0.000       0.000       0.000       0.000       0.000       7.211       7.200       7.225       7.241       7.251    
        7.259       7.299       7.509       7.829       7.514       7.314       7.296       7.307       0.000       0.000    
   2    0.000       0.000       0.000       0.000       7.239       7.248       7.201       7.266       7.276       7.283    
        7.289       7.318       7.483       7.831       7.476       7.291       7.292       7.309       0.000       0.000    
   3    0.000       0.000       0.000       0.000       7.321       7.432       7.470       7.464       7.437       7.434    
        7.434       7.438       7.487       7.833       7.421       7.222       7.287       7.316       0.000       0.000    
   4    0.000       0.000       0.000       7.460       7.536       7.829       7.826       7.828       7.832       7.831    
        7.830       7.822       7.639       7.837       7.429       7.300       7.314       7.337       0.000       0.000    
   5    0.000       0.000       7.789       7.806       7.838       7.825       7.575       7.488       7.456       7.462    
        7.537       7.828       7.837       7.817       7.424       7.331       7.343       7.368       7.392       0.000    
   6    0.000       7.838       7.839       7.835       7.761       7.502       7.367       7.326       7.313       7.312    
        7.346       7.442       7.461       7.445       7.350       7.342       7.367       7.387       7.397       0.000    
   7    0.000       7.460       7.464       7.458       7.420       7.346       7.311       7.299       7.287       7.271    
        7.295       7.326       7.338       7.335       7.317       7.351       7.384       7.404       0.000       0.000    
   8    0.000       7.325       7.334       7.337       7.331       7.320       7.315       7.308       7.286       7.213    
        7.289       7.316       7.325       7.318       7.262       7.356       7.400       7.425       0.000       0.000    
   9    0.000       0.000       7.323       7.326       7.328       7.329       7.328       7.323       7.312       7.294    
        7.315       7.331       7.340       7.344       7.345       7.385       7.420       7.451       7.485       7.501    
  10    0.000       0.000       7.331       7.333       7.336       7.338       7.337       7.333       7.327       7.321    
        7.330       7.341       7.351       7.360       7.373       7.401       7.432       7.461       7.487       7.501    

 HEAD WILL BE SAVED ON UNIT   51 AT END OF TIME STEP   92, STRESS PERIOD    2

 DRAWDOWN WILL BE SAVED ON UNIT   52 AT END OF TIME STEP   92, STRESS PERIOD    2
1
  VOLUMETRIC BUDGET FOR ENTIRE MODEL AT END OF TIME STEP   92, STRESS PERIOD   2
  ------------------------------------------------------------------------------

     CUMULATIVE VOLUMES      L**3       RATES FOR THIS TIME STEP      L**3/T
     ------------------                 ------------------------

           IN:                                      IN:
           ---                                      ---
             STORAGE =        2509.7307               STORAGE =           7.0887
       CONSTANT HEAD =           0.0000         CONSTANT HEAD =           0.0000
               WELLS =           0.0000                 WELLS =           0.0000
       RIVER LEAKAGE =      831434.2500         RIVER LEAKAGE =        2962.5464
            RECHARGE =       55605.8828              RECHARGE =         599.7326

            TOTAL IN =      889549.8750              TOTAL IN =        3569.3677

          OUT:                                     OUT:
          ----                                     ----
             STORAGE =      865808.0000               STORAGE =        3315.6082
       CONSTANT HEAD =           0.0000         CONSTANT HEAD =           0.0000
               WELLS =       23584.0137                 WELLS =         254.5907
       RIVER LEAKAGE =         268.8873         RIVER LEAKAGE =           0.0000
            RECHARGE =           0.0000              RECHARGE =           0.0000

           TOTAL OUT =      889660.8750             TOTAL OUT =        3570.1987

            IN - OUT =        -111.0000              IN - OUT =          -0.8311

 PERCENT DISCREPANCY =          -0.01     PERCENT DISCREPANCY =          -0.02






         TIME SUMMARY AT END OF TIME STEP   92 IN STRESS PERIOD    2
                    SECONDS     MINUTES      HOURS       DAYS        YEARS
                    -----------------------------------------------------------
   TIME STEP LENGTH  86400.      1440.0      24.000      1.0000     2.73785E-03
 STRESS PERIOD TIME 7.94880E+06 1.32480E+05  2208.0      92.000     0.25188    
         TOTAL TIME 8.03520E+06 1.33920E+05  2232.0      93.000     0.25462    
1

 SOLVING FOR HEAD 

    ------------------------------------------------
       NWT REQUIRED            3 OUTER ITERATIONS 
       AND A TOTAL OF          3 INNER ITERATIONS.
    ------------------------------------------------

 OUTPUT CONTROL FOR STRESS PERIOD    2   TIME STEP   93
    SAVE HEAD FOR ALL LAYERS
    SAVE DRAWDOWN FOR ALL LAYERS
    SAVE BUDGET
    PRINT HEAD FOR ALL LAYERS
    PRINT BUDGET
1
              HEAD IN LAYER   1 AT END OF TIME STEP  93 IN STRESS PERIOD    2
  ---------------------------------------------------------------------------

            1           2           3           4           5           6           7           8           9          10
           11          12          13          14          15          16          17          18          19          20
 ........................................................................................................................
   1    0.000       0.000       0.000       0.000       0.000       7.211       7.200       7.225       7.241       7.251    
        7.260       7.301       7.511       7.829       7.516       7.315       7.296       7.307       0.000       0.000    
   2    0.000       0.000       0.000       0.000       7.240       7.248       7.202       7.267       7.277       7.284    
        7.290       7.319       7.485       7.831       7.477       7.292       7.292       7.309       0.000       0.000    
   3    0.000       0.000       0.000       0.000       7.323       7.433       7.472       7.465       7.439       7.436    
        7.436       7.440       7.490       7.833       7.422       7.223       7.287       7.316       0.000       0.000    
   4    0.000       0.000       0.000       7.463       7.538       7.829       7.826       7.828       7.832       7.831    
        7.831       7.822       7.641       7.837       7.431       7.300       7.315       7.337       0.000       0.000    
   5    0.000       0.000       7.791       7.806       7.838       7.825       7.577       7.490       7.458       7.464    
        7.538       7.828       7.837       7.817       7.425       7.332       7.344       7.368       7.392       0.000    
   6    0.000       7.838       7.839       7.835       7.762       7.504       7.368       7.327       7.314       7.313    
        7.347       7.443       7.463       7.447       7.350       7.342       7.367       7.388       7.398       0.000    
   7    0.000       7.462       7.466       7.460       7.421       7.347       7.312       7.299       7.288       7.271    
        7.296       7.327       7.338       7.336       7.317       7.351       7.384       7.404       0.000       0.000    
   8    0.000       7.326       7.334       7.338       7.332       7.320       7.315       7.308       7.286       7.213    
        7.289       7.316       7.325       7.318       7.262       7.356       7.400       7.425       0.000       0.000    
   9    0.000       0.000       7.323       7.326       7.328       7.329       7.328       7.323       7.312       7.294    
        7.315       7.331       7.340       7.344       7.345       7.385       7.420       7.451       7.485       7.501    
  10    0.000       0.000       7.331       7.333       7.336       7.338       7.337       7.333       7.327       7.321    
        7.330       7.341       7.351       7.360       7.373       7.401       7.432       7.461       7.487       7.501    

 HEAD WILL BE SAVED ON UNIT   51 AT END OF TIME STEP   93, STRESS PERIOD    2

 DRAWDOWN WILL BE SAVED ON UNIT   52 AT END OF TIME STEP   93, STRESS PERIOD    2
1
  VOLUMETRIC BUDGET FOR ENTIRE MODEL AT END OF TIME STEP   93, STRESS PERIOD   2
  ------------------------------------------------------------------------------

     CUMULATIVE VOLUMES      L**3       RATES FOR THIS TIME STEP      L**3/T
     ------------------                 ------------------------

           IN:                                      IN:
           ---                                      ---
             STORAGE =        2516.5593               STORAGE =           6.8285
       CONSTANT HEAD =           0.0000         CONSTANT HEAD =           0.0000
               WELLS =           0.0000                 WELLS =           0.0000
       RIVER LEAKAGE =      834380.1875         RIVER LEAKAGE =        2945.9526
            RECHARGE =       56205.6172              RECHARGE =         599.7326

            TOTAL IN =      893102.3750              TOTAL IN =        3552.5139

          OUT:                                     OUT:
          ----                                     ----
             STORAGE =      869106.7500               STORAGE =        3298.7498
       CONSTANT HEAD =           0.0000         CONSTANT HEAD =           0.0000
               WELLS =       23838.6035                 WELLS =         254.5907
       RIVER LEAKAGE =         268.8873         RIVER LEAKAGE =           0.0000
            RECHARGE =           0.0000              RECHARGE =           0.0000

           TOTAL OUT =      893214.2500             TOTAL OUT =        3553.3403

            IN - OUT =        -111.8750              IN - OUT =          -0.8264

 PERCENT DISCREPANCY =          -0.01     PERCENT DISCREPANCY =          -0.02






         TIME SUMMARY AT END OF TIME STEP   93 IN STRESS PERIOD    2
                    SECONDS     MINUTES      HOURS       DAYS        YEARS
                    -----------------------------------------------------------
   TIME STEP LENGTH  86400.      1440.0      24.000      1.0000     2.73785E-03
 STRESS PERIOD TIME 8.03520E+06 1.33920E+05  2232.0      93.000     0.25462    
         TOTAL TIME 8.12160E+06 1.35360E+05  2256.0      94.000     0.25736    
1

 SOLVING FOR HEAD 

    ------------------------------------------------
       NWT REQUIRED            3 OUTER ITERATIONS 
       AND A TOTAL OF          3 INNER ITERATIONS.
    ------------------------------------------------

 OUTPUT CONTROL FOR STRESS PERIOD    2   TIME STEP   94
    SAVE HEAD FOR ALL LAYERS
    SAVE DRAWDOWN FOR ALL LAYERS
    SAVE BUDGET
    PRINT HEAD FOR ALL LAYERS
    PRINT BUDGET
1
              HEAD IN LAYER   1 AT END OF TIME STEP  94 IN STRESS PERIOD    2
  ---------------------------------------------------------------------------

            1           2           3           4           5           6           7           8           9          10
           11          12          13          14          15          16          17          18          19          20
 ........................................................................................................................
   1    0.000       0.000       0.000       0.000       0.000       7.212       7.201       7.225       7.242       7.252    
        7.260       7.302       7.513       7.829       7.517       7.316       7.296       7.307       0.000       0.000    
   2    0.000       0.000       0.000       0.000       7.240       7.249       7.203       7.268       7.277       7.284    
        7.290       7.320       7.487       7.831       7.479       7.293       7.292       7.309       0.000       0.000    
   3    0.000       0.000       0.000       0.000       7.324       7.435       7.473       7.467       7.441       7.438    
        7.437       7.442       7.492       7.833       7.424       7.223       7.287       7.316       0.000       0.000    
   4    0.000       0.000       0.000       7.465       7.540       7.829       7.826       7.828       7.832       7.831    
        7.831       7.823       7.644       7.837       7.432       7.301       7.315       7.337       0.000       0.000    
   5    0.000       0.000       7.792       7.807       7.838       7.825       7.578       7.492       7.460       7.466    
        7.540       7.828       7.837       7.817       7.427       7.332       7.344       7.368       7.392       0.000    
   6    0.000       7.838       7.839       7.835       7.763       7.505       7.369       7.328       7.315       7.314    
        7.349       7.444       7.464       7.448       7.351       7.342       7.367       7.388       7.398       0.000    
   7    0.000       7.463       7.467       7.461       7.423       7.348       7.312       7.300       7.288       7.271    
        7.296       7.328       7.339       7.337       7.317       7.351       7.384       7.404       0.000       0.000    
   8    0.000       7.327       7.335       7.338       7.332       7.321       7.315       7.308       7.286       7.213    
        7.289       7.316       7.326       7.318       7.262       7.356       7.400       7.425       0.000       0.000    
   9    0.000       0.000       7.324       7.326       7.328       7.329       7.329       7.324       7.312       7.294    
        7.315       7.331       7.340       7.344       7.345       7.385       7.420       7.451       7.485       7.501    
  10    0.000       0.000       7.331       7.333       7.336       7.338       7.337       7.333       7.327       7.321    
        7.330       7.342       7.351       7.360       7.373       7.401       7.432       7.461       7.487       7.501    

 HEAD WILL BE SAVED ON UNIT   51 AT END OF TIME STEP   94, STRESS PERIOD    2

 DRAWDOWN WILL BE SAVED ON UNIT   52 AT END OF TIME STEP   94, STRESS PERIOD    2
1
  VOLUMETRIC BUDGET FOR ENTIRE MODEL AT END OF TIME STEP   94, STRESS PERIOD   2
  ------------------------------------------------------------------------------

     CUMULATIVE VOLUMES      L**3       RATES FOR THIS TIME STEP      L**3/T
     ------------------                 ------------------------

           IN:                                      IN:
           ---                                      ---
             STORAGE =        2523.1289               STORAGE =           6.5696
       CONSTANT HEAD =           0.0000         CONSTANT HEAD =           0.0000
               WELLS =           0.0000                 WELLS =           0.0000
       RIVER LEAKAGE =      837309.7500         RIVER LEAKAGE =        2929.5830
            RECHARGE =       56805.3516              RECHARGE =         599.7326

            TOTAL IN =      896638.2500              TOTAL IN =        3535.8853

          OUT:                                     OUT:
          ----                                     ----
             STORAGE =      872388.8750               STORAGE =        3282.1169
       CONSTANT HEAD =           0.0000         CONSTANT HEAD =           0.0000
               WELLS =       24093.1934                 WELLS =         254.5907
       RIVER LEAKAGE =         268.8873         RIVER LEAKAGE =           0.0000
            RECHARGE =           0.0000              RECHARGE =           0.0000

           TOTAL OUT =      896750.9375             TOTAL OUT =        3536.7075

            IN - OUT =        -112.6875              IN - OUT =          -0.8223

 PERCENT DISCREPANCY =          -0.01     PERCENT DISCREPANCY =          -0.02






         TIME SUMMARY AT END OF TIME STEP   94 IN STRESS PERIOD    2
                    SECONDS     MINUTES      HOURS       DAYS        YEARS
                    -----------------------------------------------------------
   TIME STEP LENGTH  86400.      1440.0      24.000      1.0000     2.73785E-03
 STRESS PERIOD TIME 8.12160E+06 1.35360E+05  2256.0      94.000     0.25736    
         TOTAL TIME 8.20800E+06 1.36800E+05  2280.0      95.000     0.26010    
1

 SOLVING FOR HEAD 

    ------------------------------------------------
       NWT REQUIRED            3 OUTER ITERATIONS 
       AND A TOTAL OF          3 INNER ITERATIONS.
    ------------------------------------------------

 OUTPUT CONTROL FOR STRESS PERIOD    2   TIME STEP   95
    SAVE HEAD FOR ALL LAYERS
    SAVE DRAWDOWN FOR ALL LAYERS
    SAVE BUDGET
    PRINT HEAD FOR ALL LAYERS
    PRINT BUDGET
1
              HEAD IN LAYER   1 AT END OF TIME STEP  95 IN STRESS PERIOD    2
  ---------------------------------------------------------------------------

            1           2           3           4           5           6           7           8           9          10
           11          12          13          14          15          16          17          18          19          20
 ........................................................................................................................
   1    0.000       0.000       0.000       0.000       0.000       7.212       7.201       7.226       7.242       7.252    
        7.261       7.303       7.515       7.829       7.519       7.317       7.297       7.307       0.000       0.000    
   2    0.000       0.000       0.000       0.000       7.241       7.250       7.204       7.269       7.278       7.285    
        7.291       7.322       7.489       7.831       7.480       7.294       7.292       7.309       0.000       0.000    
   3    0.000       0.000       0.000       0.000       7.326       7.436       7.475       7.469       7.442       7.439    
        7.439       7.444       7.494       7.833       7.425       7.224       7.287       7.316       0.000       0.000    
   4    0.000       0.000       0.000       7.468       7.542       7.829       7.826       7.828       7.832       7.831    
        7.831       7.823       7.646       7.837       7.433       7.301       7.315       7.337       0.000       0.000    
   5    0.000       0.000       7.794       7.807       7.838       7.825       7.580       7.494       7.461       7.467    
        7.542       7.828       7.837       7.817       7.428       7.333       7.344       7.368       7.392       0.000    
   6    0.000       7.838       7.839       7.835       7.763       7.507       7.371       7.329       7.316       7.315    
        7.350       7.446       7.465       7.449       7.352       7.342       7.367       7.388       7.398       0.000    
   7    0.000       7.465       7.469       7.463       7.424       7.350       7.313       7.300       7.288       7.271    
        7.296       7.328       7.340       7.337       7.318       7.351       7.384       7.404       0.000       0.000    
   8    0.000       7.328       7.336       7.339       7.333       7.321       7.315       7.308       7.286       7.213    
        7.289       7.316       7.326       7.319       7.262       7.356       7.400       7.425       0.000       0.000    
   9    0.000       0.000       7.324       7.327       7.329       7.329       7.329       7.324       7.312       7.294    
        7.315       7.331       7.340       7.344       7.345       7.385       7.420       7.451       7.485       7.501    
  10    0.000       0.000       7.331       7.333       7.336       7.338       7.337       7.333       7.327       7.321    
        7.330       7.342       7.351       7.360       7.373       7.401       7.432       7.461       7.487       7.501    

 HEAD WILL BE SAVED ON UNIT   51 AT END OF TIME STEP   95, STRESS PERIOD    2

 DRAWDOWN WILL BE SAVED ON UNIT   52 AT END OF TIME STEP   95, STRESS PERIOD    2
1
  VOLUMETRIC BUDGET FOR ENTIRE MODEL AT END OF TIME STEP   95, STRESS PERIOD   2
  ------------------------------------------------------------------------------

     CUMULATIVE VOLUMES      L**3       RATES FOR THIS TIME STEP      L**3/T
     ------------------                 ------------------------

           IN:                                      IN:
           ---                                      ---
             STORAGE =        2529.4409               STORAGE =           6.3120
       CONSTANT HEAD =           0.0000         CONSTANT HEAD =           0.0000
               WELLS =           0.0000                 WELLS =           0.0000
       RIVER LEAKAGE =      840223.1875         RIVER LEAKAGE =        2913.4277
            RECHARGE =       57405.0859              RECHARGE =         599.7326

            TOTAL IN =      900157.6875              TOTAL IN =        3519.4724

          OUT:                                     OUT:
          ----                                     ----
             STORAGE =      875654.5625               STORAGE =        3265.7000
       CONSTANT HEAD =           0.0000         CONSTANT HEAD =           0.0000
               WELLS =       24347.7832                 WELLS =         254.5907
       RIVER LEAKAGE =         268.8873         RIVER LEAKAGE =           0.0000
            RECHARGE =           0.0000              RECHARGE =           0.0000

           TOTAL OUT =      900271.2500             TOTAL OUT =        3520.2905

            IN - OUT =        -113.5625              IN - OUT =          -0.8181

 PERCENT DISCREPANCY =          -0.01     PERCENT DISCREPANCY =          -0.02






         TIME SUMMARY AT END OF TIME STEP   95 IN STRESS PERIOD    2
                    SECONDS     MINUTES      HOURS       DAYS        YEARS
                    -----------------------------------------------------------
   TIME STEP LENGTH  86400.      1440.0      24.000      1.0000     2.73785E-03
 STRESS PERIOD TIME 8.20800E+06 1.36800E+05  2280.0      95.000     0.26010    
         TOTAL TIME 8.29440E+06 1.38240E+05  2304.0      96.000     0.26283    
1

 SOLVING FOR HEAD 

    ------------------------------------------------
       NWT REQUIRED            3 OUTER ITERATIONS 
       AND A TOTAL OF          3 INNER ITERATIONS.
    ------------------------------------------------

 OUTPUT CONTROL FOR STRESS PERIOD    2   TIME STEP   96
    SAVE HEAD FOR ALL LAYERS
    SAVE DRAWDOWN FOR ALL LAYERS
    SAVE BUDGET
    PRINT HEAD FOR ALL LAYERS
    PRINT BUDGET
1
              HEAD IN LAYER   1 AT END OF TIME STEP  96 IN STRESS PERIOD    2
  ---------------------------------------------------------------------------

            1           2           3           4           5           6           7           8           9          10
           11          12          13          14          15          16          17          18          19          20
 ........................................................................................................................
   1    0.000       0.000       0.000       0.000       0.000       7.212       7.201       7.226       7.242       7.252    
        7.261       7.304       7.517       7.829       7.521       7.317       7.297       7.307       0.000       0.000    
   2    0.000       0.000       0.000       0.000       7.242       7.251       7.205       7.270       7.279       7.286    
        7.292       7.323       7.491       7.831       7.482       7.294       7.292       7.309       0.000       0.000    
   3    0.000       0.000       0.000       0.000       7.327       7.438       7.476       7.470       7.444       7.441    
        7.441       7.446       7.497       7.833       7.427       7.225       7.287       7.316       0.000       0.000    
   4    0.000       0.000       0.000       7.470       7.544       7.829       7.826       7.828       7.832       7.831    
        7.831       7.823       7.648       7.837       7.435       7.302       7.315       7.337       0.000       0.000    
   5    0.000       0.000       7.795       7.807       7.838       7.826       7.582       7.495       7.463       7.469    
        7.543       7.829       7.837       7.817       7.429       7.333       7.344       7.368       7.392       0.000    
   6    0.000       7.838       7.839       7.835       7.764       7.509       7.372       7.330       7.317       7.316    
        7.351       7.447       7.467       7.450       7.353       7.343       7.367       7.388       7.398       0.000    
   7    0.000       7.466       7.470       7.464       7.426       7.351       7.313       7.300       7.288       7.272    
        7.297       7.329       7.340       7.338       7.318       7.351       7.384       7.404       0.000       0.000    
   8    0.000       7.329       7.337       7.340       7.333       7.321       7.315       7.308       7.286       7.213    
        7.289       7.317       7.326       7.319       7.262       7.356       7.400       7.425       0.000       0.000    
   9    0.000       0.000       7.324       7.327       7.329       7.329       7.329       7.324       7.312       7.294    
        7.315       7.331       7.340       7.344       7.345       7.385       7.420       7.451       7.485       7.501    
  10    0.000       0.000       7.331       7.333       7.336       7.338       7.337       7.333       7.327       7.321    
        7.330       7.342       7.351       7.360       7.373       7.401       7.432       7.461       7.487       7.501    

 HEAD WILL BE SAVED ON UNIT   51 AT END OF TIME STEP   96, STRESS PERIOD    2

 DRAWDOWN WILL BE SAVED ON UNIT   52 AT END OF TIME STEP   96, STRESS PERIOD    2
1
  VOLUMETRIC BUDGET FOR ENTIRE MODEL AT END OF TIME STEP   96, STRESS PERIOD   2
  ------------------------------------------------------------------------------

     CUMULATIVE VOLUMES      L**3       RATES FOR THIS TIME STEP      L**3/T
     ------------------                 ------------------------

           IN:                                      IN:
           ---                                      ---
             STORAGE =        2535.4963               STORAGE =           6.0555
       CONSTANT HEAD =           0.0000         CONSTANT HEAD =           0.0000
               WELLS =           0.0000                 WELLS =           0.0000
       RIVER LEAKAGE =      843120.6875         RIVER LEAKAGE =        2897.4841
            RECHARGE =       58004.8203              RECHARGE =         599.7326

            TOTAL IN =      903661.0000              TOTAL IN =        3503.2722

          OUT:                                     OUT:
          ----                                     ----
             STORAGE =      878904.0625               STORAGE =        3249.4961
       CONSTANT HEAD =           0.0000         CONSTANT HEAD =           0.0000
               WELLS =       24602.3730                 WELLS =         254.5907
       RIVER LEAKAGE =         268.8873         RIVER LEAKAGE =           0.0000
            RECHARGE =           0.0000              RECHARGE =           0.0000

           TOTAL OUT =      903775.3125             TOTAL OUT =        3504.0867

            IN - OUT =        -114.3125              IN - OUT =          -0.8145

 PERCENT DISCREPANCY =          -0.01     PERCENT DISCREPANCY =          -0.02






         TIME SUMMARY AT END OF TIME STEP   96 IN STRESS PERIOD    2
                    SECONDS     MINUTES      HOURS       DAYS        YEARS
                    -----------------------------------------------------------
   TIME STEP LENGTH  86400.      1440.0      24.000      1.0000     2.73785E-03
 STRESS PERIOD TIME 8.29440E+06 1.38240E+05  2304.0      96.000     0.26283    
         TOTAL TIME 8.38080E+06 1.39680E+05  2328.0      97.000     0.26557    
1

 SOLVING FOR HEAD 

    ------------------------------------------------
       NWT REQUIRED            3 OUTER ITERATIONS 
       AND A TOTAL OF          3 INNER ITERATIONS.
    ------------------------------------------------

 OUTPUT CONTROL FOR STRESS PERIOD    2   TIME STEP   97
    SAVE HEAD FOR ALL LAYERS
    SAVE DRAWDOWN FOR ALL LAYERS
    SAVE BUDGET
    PRINT HEAD FOR ALL LAYERS
    PRINT BUDGET
1
              HEAD IN LAYER   1 AT END OF TIME STEP  97 IN STRESS PERIOD    2
  ---------------------------------------------------------------------------

            1           2           3           4           5           6           7           8           9          10
           11          12          13          14          15          16          17          18          19          20
 ........................................................................................................................
   1    0.000       0.000       0.000       0.000       0.000       7.212       7.202       7.226       7.243       7.253    
        7.262       7.305       7.518       7.829       7.522       7.318       7.297       7.307       0.000       0.000    
   2    0.000       0.000       0.000       0.000       7.242       7.252       7.206       7.271       7.280       7.287    
        7.293       7.325       7.493       7.831       7.484       7.295       7.293       7.309       0.000       0.000    
   3    0.000       0.000       0.000       0.000       7.329       7.439       7.477       7.472       7.445       7.442    
        7.442       7.448       7.499       7.833       7.428       7.225       7.287       7.316       0.000       0.000    
   4    0.000       0.000       0.000       7.473       7.546       7.829       7.826       7.828       7.832       7.831    
        7.831       7.823       7.650       7.837       7.436       7.302       7.315       7.337       0.000       0.000    
   5    0.000       0.000       7.796       7.808       7.838       7.826       7.584       7.497       7.465       7.471    
        7.545       7.829       7.837       7.817       7.430       7.334       7.344       7.368       7.392       0.000    
   6    0.000       7.838       7.839       7.835       7.764       7.510       7.374       7.332       7.318       7.317    
        7.352       7.448       7.468       7.451       7.353       7.343       7.367       7.388       7.398       0.000    
   7    0.000       7.468       7.472       7.466       7.427       7.352       7.314       7.301       7.288       7.272    
        7.297       7.329       7.341       7.338       7.318       7.352       7.384       7.404       0.000       0.000    
   8    0.000       7.330       7.338       7.340       7.334       7.322       7.315       7.308       7.286       7.213    
        7.289       7.317       7.326       7.319       7.262       7.356       7.400       7.425       0.000       0.000    
   9    0.000       0.000       7.324       7.327       7.329       7.330       7.329       7.324       7.312       7.294    
        7.315       7.331       7.340       7.344       7.345       7.385       7.420       7.451       7.485       7.501    
  10    0.000       0.000       7.331       7.333       7.336       7.338       7.337       7.333       7.327       7.321    
        7.330       7.342       7.351       7.360       7.373       7.401       7.432       7.461       7.487       7.501    

 HEAD WILL BE SAVED ON UNIT   51 AT END OF TIME STEP   97, STRESS PERIOD    2

 DRAWDOWN WILL BE SAVED ON UNIT   52 AT END OF TIME STEP   97, STRESS PERIOD    2
1
  VOLUMETRIC BUDGET FOR ENTIRE MODEL AT END OF TIME STEP   97, STRESS PERIOD   2
  ------------------------------------------------------------------------------

     CUMULATIVE VOLUMES      L**3       RATES FOR THIS TIME STEP      L**3/T
     ------------------                 ------------------------

           IN:                                      IN:
           ---                                      ---
             STORAGE =        2541.2966               STORAGE =           5.8002
       CONSTANT HEAD =           0.0000         CONSTANT HEAD =           0.0000
               WELLS =           0.0000                 WELLS =           0.0000
       RIVER LEAKAGE =      846002.4375         RIVER LEAKAGE =        2881.7495
            RECHARGE =       58604.5547              RECHARGE =         599.7326

            TOTAL IN =      907148.3125              TOTAL IN =        3487.2825

          OUT:                                     OUT:
          ----                                     ----
             STORAGE =      882137.5625               STORAGE =        3233.5020
       CONSTANT HEAD =           0.0000         CONSTANT HEAD =           0.0000
               WELLS =       24856.9629                 WELLS =         254.5907
       RIVER LEAKAGE =         268.8873         RIVER LEAKAGE =           0.0000
            RECHARGE =           0.0000              RECHARGE =           0.0000

           TOTAL OUT =      907263.3750             TOTAL OUT =        3488.0925

            IN - OUT =        -115.0625              IN - OUT =          -0.8101

 PERCENT DISCREPANCY =          -0.01     PERCENT DISCREPANCY =          -0.02






         TIME SUMMARY AT END OF TIME STEP   97 IN STRESS PERIOD    2
                    SECONDS     MINUTES      HOURS       DAYS        YEARS
                    -----------------------------------------------------------
   TIME STEP LENGTH  86400.      1440.0      24.000      1.0000     2.73785E-03
 STRESS PERIOD TIME 8.38080E+06 1.39680E+05  2328.0      97.000     0.26557    
         TOTAL TIME 8.46720E+06 1.41120E+05  2352.0      98.000     0.26831    
1

 SOLVING FOR HEAD 

    ------------------------------------------------
       NWT REQUIRED            3 OUTER ITERATIONS 
       AND A TOTAL OF          3 INNER ITERATIONS.
    ------------------------------------------------

 OUTPUT CONTROL FOR STRESS PERIOD    2   TIME STEP   98
    SAVE HEAD FOR ALL LAYERS
    SAVE DRAWDOWN FOR ALL LAYERS
    SAVE BUDGET
    PRINT HEAD FOR ALL LAYERS
    PRINT BUDGET
1
              HEAD IN LAYER   1 AT END OF TIME STEP  98 IN STRESS PERIOD    2
  ---------------------------------------------------------------------------

            1           2           3           4           5           6           7           8           9          10
           11          12          13          14          15          16          17          18          19          20
 ........................................................................................................................
   1    0.000       0.000       0.000       0.000       0.000       7.213       7.202       7.227       7.243       7.253    
        7.262       7.306       7.520       7.829       7.524       7.319       7.297       7.307       0.000       0.000    
   2    0.000       0.000       0.000       0.000       7.243       7.252       7.207       7.272       7.281       7.288    
        7.294       7.326       7.495       7.831       7.485       7.296       7.293       7.309       0.000       0.000    
   3    0.000       0.000       0.000       0.000       7.330       7.440       7.479       7.473       7.447       7.443    
        7.444       7.449       7.501       7.834       7.430       7.226       7.287       7.316       0.000       0.000    
   4    0.000       0.000       0.000       7.475       7.547       7.829       7.826       7.828       7.832       7.831    
        7.831       7.823       7.652       7.837       7.437       7.303       7.315       7.337       0.000       0.000    
   5    0.000       0.000       7.797       7.808       7.838       7.826       7.585       7.499       7.466       7.472    
        7.547       7.829       7.837       7.817       7.431       7.334       7.344       7.368       7.392       0.000    
   6    0.000       7.838       7.840       7.835       7.765       7.512       7.375       7.333       7.318       7.318    
        7.353       7.449       7.469       7.453       7.354       7.343       7.367       7.388       7.398       0.000    
   7    0.000       7.469       7.473       7.467       7.428       7.353       7.315       7.301       7.289       7.272    
        7.298       7.330       7.342       7.339       7.318       7.352       7.384       7.404       0.000       0.000    
   8    0.000       7.331       7.338       7.341       7.334       7.322       7.316       7.308       7.286       7.213    
        7.289       7.317       7.326       7.319       7.262       7.356       7.400       7.425       0.000       0.000    
   9    0.000       0.000       7.325       7.327       7.329       7.330       7.329       7.324       7.312       7.294    
        7.315       7.331       7.341       7.344       7.345       7.385       7.420       7.451       7.485       7.501    
  10    0.000       0.000       7.331       7.333       7.336       7.338       7.337       7.334       7.327       7.321    
        7.330       7.342       7.352       7.360       7.373       7.401       7.432       7.461       7.487       7.501    

 HEAD WILL BE SAVED ON UNIT   51 AT END OF TIME STEP   98, STRESS PERIOD    2

 DRAWDOWN WILL BE SAVED ON UNIT   52 AT END OF TIME STEP   98, STRESS PERIOD    2
1
  VOLUMETRIC BUDGET FOR ENTIRE MODEL AT END OF TIME STEP   98, STRESS PERIOD   2
  ------------------------------------------------------------------------------

     CUMULATIVE VOLUMES      L**3       RATES FOR THIS TIME STEP      L**3/T
     ------------------                 ------------------------

           IN:                                      IN:
           ---                                      ---
             STORAGE =        2546.8425               STORAGE =           5.5458
       CONSTANT HEAD =           0.0000         CONSTANT HEAD =           0.0000
               WELLS =           0.0000                 WELLS =           0.0000
       RIVER LEAKAGE =      848868.6250         RIVER LEAKAGE =        2866.2009
            RECHARGE =       59204.2891              RECHARGE =         599.7326

            TOTAL IN =      910619.7500              TOTAL IN =        3471.4795

          OUT:                                     OUT:
          ----                                     ----
             STORAGE =      885355.2500               STORAGE =        3217.6951
       CONSTANT HEAD =           0.0000         CONSTANT HEAD =           0.0000
               WELLS =       25111.5527                 WELLS =         254.5907
       RIVER LEAKAGE =         268.8873         RIVER LEAKAGE =           0.0000
            RECHARGE =           0.0000              RECHARGE =           0.0000

           TOTAL OUT =      910735.6875             TOTAL OUT =        3472.2856

            IN - OUT =        -115.9375              IN - OUT =          -0.8062

 PERCENT DISCREPANCY =          -0.01     PERCENT DISCREPANCY =          -0.02






         TIME SUMMARY AT END OF TIME STEP   98 IN STRESS PERIOD    2
                    SECONDS     MINUTES      HOURS       DAYS        YEARS
                    -----------------------------------------------------------
   TIME STEP LENGTH  86400.      1440.0      24.000      1.0000     2.73785E-03
 STRESS PERIOD TIME 8.46720E+06 1.41120E+05  2352.0      98.000     0.26831    
         TOTAL TIME 8.55360E+06 1.42560E+05  2376.0      99.000     0.27105    
1

 SOLVING FOR HEAD 

    ------------------------------------------------
       NWT REQUIRED            3 OUTER ITERATIONS 
       AND A TOTAL OF          3 INNER ITERATIONS.
    ------------------------------------------------

 OUTPUT CONTROL FOR STRESS PERIOD    2   TIME STEP   99
    SAVE HEAD FOR ALL LAYERS
    SAVE DRAWDOWN FOR ALL LAYERS
    SAVE BUDGET
    PRINT HEAD FOR ALL LAYERS
    PRINT BUDGET
1
              HEAD IN LAYER   1 AT END OF TIME STEP  99 IN STRESS PERIOD    2
  ---------------------------------------------------------------------------

            1           2           3           4           5           6           7           8           9          10
           11          12          13          14          15          16          17          18          19          20
 ........................................................................................................................
   1    0.000       0.000       0.000       0.000       0.000       7.213       7.202       7.227       7.243       7.253    
        7.263       7.307       7.522       7.829       7.526       7.320       7.298       7.307       0.000       0.000    
   2    0.000       0.000       0.000       0.000       7.244       7.253       7.208       7.273       7.282       7.288    
        7.295       7.327       7.497       7.831       7.487       7.297       7.293       7.309       0.000       0.000    
   3    0.000       0.000       0.000       0.000       7.332       7.442       7.480       7.475       7.448       7.445    
        7.445       7.451       7.504       7.834       7.431       7.226       7.288       7.316       0.000       0.000    
   4    0.000       0.000       0.000       7.478       7.549       7.829       7.826       7.828       7.832       7.831    
        7.831       7.823       7.654       7.837       7.439       7.304       7.315       7.337       0.000       0.000    
   5    0.000       0.000       7.799       7.808       7.838       7.826       7.587       7.501       7.468       7.474    
        7.548       7.829       7.837       7.817       7.432       7.335       7.344       7.368       7.392       0.000    
   6    0.000       7.838       7.840       7.835       7.765       7.513       7.377       7.334       7.319       7.319    
        7.355       7.451       7.471       7.454       7.355       7.343       7.367       7.388       7.398       0.000    
   7    0.000       7.471       7.474       7.468       7.430       7.354       7.315       7.301       7.289       7.272    
        7.298       7.331       7.342       7.339       7.319       7.352       7.384       7.404       0.000       0.000    
   8    0.000       7.332       7.339       7.342       7.335       7.323       7.316       7.308       7.286       7.213    
        7.289       7.317       7.327       7.319       7.261       7.356       7.400       7.425       0.000       0.000    
   9    0.000       0.000       7.325       7.328       7.329       7.330       7.329       7.324       7.312       7.294    
        7.315       7.331       7.341       7.344       7.345       7.385       7.420       7.451       7.485       7.501    
  10    0.000       0.000       7.331       7.333       7.336       7.338       7.337       7.334       7.327       7.321    
        7.330       7.342       7.352       7.360       7.373       7.401       7.432       7.461       7.487       7.502    

 HEAD WILL BE SAVED ON UNIT   51 AT END OF TIME STEP   99, STRESS PERIOD    2

 DRAWDOWN WILL BE SAVED ON UNIT   52 AT END OF TIME STEP   99, STRESS PERIOD    2
1
  VOLUMETRIC BUDGET FOR ENTIRE MODEL AT END OF TIME STEP   99, STRESS PERIOD   2
  ------------------------------------------------------------------------------

     CUMULATIVE VOLUMES      L**3       RATES FOR THIS TIME STEP      L**3/T
     ------------------                 ------------------------

           IN:                                      IN:
           ---                                      ---
             STORAGE =        2552.1355               STORAGE =           5.2930
       CONSTANT HEAD =           0.0000         CONSTANT HEAD =           0.0000
               WELLS =           0.0000                 WELLS =           0.0000
       RIVER LEAKAGE =      851719.5000         RIVER LEAKAGE =        2850.8457
            RECHARGE =       59804.0234              RECHARGE =         599.7326

            TOTAL IN =      914075.6250              TOTAL IN =        3455.8713

          OUT:                                     OUT:
          ----                                     ----
             STORAGE =      888557.3125               STORAGE =        3202.0833
       CONSTANT HEAD =           0.0000         CONSTANT HEAD =           0.0000
               WELLS =       25366.1426                 WELLS =         254.5907
       RIVER LEAKAGE =         268.8873         RIVER LEAKAGE =           0.0000
            RECHARGE =           0.0000              RECHARGE =           0.0000

           TOTAL OUT =      914192.3125             TOTAL OUT =        3456.6738

            IN - OUT =        -116.6875              IN - OUT =          -0.8025

 PERCENT DISCREPANCY =          -0.01     PERCENT DISCREPANCY =          -0.02






         TIME SUMMARY AT END OF TIME STEP   99 IN STRESS PERIOD    2
                    SECONDS     MINUTES      HOURS       DAYS        YEARS
                    -----------------------------------------------------------
   TIME STEP LENGTH  86400.      1440.0      24.000      1.0000     2.73785E-03
 STRESS PERIOD TIME 8.55360E+06 1.42560E+05  2376.0      99.000     0.27105    
         TOTAL TIME 8.64000E+06 1.44000E+05  2400.0      100.00     0.27379    
1

 SOLVING FOR HEAD 

    ------------------------------------------------
       NWT REQUIRED            3 OUTER ITERATIONS 
       AND A TOTAL OF          3 INNER ITERATIONS.
    ------------------------------------------------

 OUTPUT CONTROL FOR STRESS PERIOD    2   TIME STEP  100
    SAVE HEAD FOR ALL LAYERS
    SAVE DRAWDOWN FOR ALL LAYERS
    SAVE BUDGET
    PRINT HEAD FOR ALL LAYERS
    PRINT BUDGET
1
              HEAD IN LAYER   1 AT END OF TIME STEP 100 IN STRESS PERIOD    2
  ---------------------------------------------------------------------------

            1           2           3           4           5           6           7           8           9          10
           11          12          13          14          15          16          17          18          19          20
 ........................................................................................................................
   1    0.000       0.000       0.000       0.000       0.000       7.213       7.203       7.227       7.243       7.253    
        7.263       7.308       7.523       7.829       7.527       7.321       7.298       7.307       0.000       0.000    
   2    0.000       0.000       0.000       0.000       7.244       7.254       7.209       7.274       7.283       7.289    
        7.296       7.329       7.499       7.831       7.488       7.297       7.293       7.309       0.000       0.000    
   3    0.000       0.000       0.000       0.000       7.333       7.443       7.482       7.476       7.450       7.446    
        7.447       7.453       7.506       7.834       7.433       7.227       7.288       7.316       0.000       0.000    
   4    0.000       0.000       0.000       7.480       7.551       7.829       7.826       7.828       7.832       7.831    
        7.831       7.823       7.656       7.837       7.440       7.304       7.315       7.337       0.000       0.000    
   5    0.000       0.000       7.800       7.809       7.838       7.826       7.589       7.502       7.469       7.476    
        7.550       7.829       7.837       7.817       7.433       7.335       7.344       7.368       7.392       0.000    
   6    0.000       7.838       7.840       7.835       7.765       7.515       7.378       7.335       7.320       7.320    
        7.356       7.452       7.472       7.455       7.356       7.344       7.367       7.388       7.398       0.000    
   7    0.000       7.472       7.476       7.470       7.431       7.355       7.316       7.302       7.289       7.273    
        7.299       7.331       7.343       7.340       7.319       7.352       7.384       7.404       0.000       0.000    
   8    0.000       7.333       7.340       7.343       7.336       7.323       7.316       7.308       7.286       7.213    
        7.289       7.317       7.327       7.319       7.261       7.356       7.400       7.425       0.000       0.000    
   9    0.000       0.000       7.325       7.328       7.329       7.330       7.329       7.324       7.312       7.294    
        7.315       7.331       7.341       7.344       7.345       7.385       7.420       7.451       7.485       7.501    
  10    0.000       0.000       7.331       7.334       7.336       7.338       7.337       7.334       7.327       7.321    
        7.330       7.342       7.352       7.361       7.373       7.401       7.432       7.461       7.487       7.502    

 HEAD WILL BE SAVED ON UNIT   51 AT END OF TIME STEP  100, STRESS PERIOD    2

 DRAWDOWN WILL BE SAVED ON UNIT   52 AT END OF TIME STEP  100, STRESS PERIOD    2
1
  VOLUMETRIC BUDGET FOR ENTIRE MODEL AT END OF TIME STEP  100, STRESS PERIOD   2
  ------------------------------------------------------------------------------

     CUMULATIVE VOLUMES      L**3       RATES FOR THIS TIME STEP      L**3/T
     ------------------                 ------------------------

           IN:                                      IN:
           ---                                      ---
             STORAGE =        2557.1765               STORAGE =           5.0410
       CONSTANT HEAD =           0.0000         CONSTANT HEAD =           0.0000
               WELLS =           0.0000                 WELLS =           0.0000
       RIVER LEAKAGE =      854555.1875         RIVER LEAKAGE =        2835.6870
            RECHARGE =       60403.7578              RECHARGE =         599.7326

            TOTAL IN =      917516.1250              TOTAL IN =        3440.4607

          OUT:                                     OUT:
          ----                                     ----
             STORAGE =      891744.0000               STORAGE =        3186.6687
       CONSTANT HEAD =           0.0000         CONSTANT HEAD =           0.0000
               WELLS =       25620.7324                 WELLS =         254.5907
       RIVER LEAKAGE =         268.8873         RIVER LEAKAGE =           0.0000
            RECHARGE =           0.0000              RECHARGE =           0.0000

           TOTAL OUT =      917633.6250             TOTAL OUT =        3441.2593

            IN - OUT =        -117.5000              IN - OUT =          -0.7986

 PERCENT DISCREPANCY =          -0.01     PERCENT DISCREPANCY =          -0.02






         TIME SUMMARY AT END OF TIME STEP  100 IN STRESS PERIOD    2
                    SECONDS     MINUTES      HOURS       DAYS        YEARS
                    -----------------------------------------------------------
   TIME STEP LENGTH  86400.      1440.0      24.000      1.0000     2.73785E-03
 STRESS PERIOD TIME 8.64000E+06 1.44000E+05  2400.0      100.00     0.27379    
         TOTAL TIME 8.72640E+06 1.45440E+05  2424.0      101.00     0.27652    
1
1
                            STRESS PERIOD NO.    3, LENGTH =   100.0000    
                            -----------------------------------------------

                              NUMBER OF TIME STEPS =   100

                               MULTIPLIER FOR DELT =     1.000

                            INITIAL TIME STEP SIZE =   1.000000    

 WELL NO.  LAYER   ROW   COL   STRESS RATE         
 --------------------------------------------------
      1      1      8     10      -44.83    
      2      1      8     15      -44.83    
      3      1      3     16      -44.83    
      4      1      2      7      -44.83    

      4 WELLS

 REACH NO.  LAYER   ROW   COL     STAGE      CONDUCTANCE     BOTTOM EL.         
 -------------------------------------------------------------------------------
      1      1      1     14       7.827          0.1368E+05       5.000    
      2      1      2     14       7.827          0.1361E+05       5.000    
      3      1      3     14       7.827          0.1216E+05       5.000    
      4      1      4      6       7.827          0.1098E+05       5.000    
      5      1      4      7       7.827          0.1140E+05       5.000    
      6      1      4      8       7.827          0.1188E+05       5.000    
      7      1      4      9       7.827          0.1314E+05       5.000    
      8      1      4     10       7.827          0.1208E+05       5.000    
      9      1      4     11       7.827          0.1078E+05       5.000    
     10      1      4     12       7.827           5226.           5.000    
     11      1      4     14       7.827          0.1502E+05       5.000    
     12      1      5      3       7.827           692.5           5.000    
     13      1      5      4       7.827           2057.           5.000    
     14      1      5      5       7.827          0.1353E+05       5.000    
     15      1      5      6       7.827           5979.           5.000    
     16      1      5     12       7.827           8415.           5.000    
     17      1      5     13       7.827          0.1685E+05       5.000    
     18      1      5     14       7.827           5216.           5.000    
     19      1      6      2       7.827          0.1213E+05       5.000    
     20      1      6      3       7.827          0.1814E+05       5.000    
     21      1      6      4       7.827          0.1032E+05       5.000    
     22      1      6      5       7.827           1334.           5.000    

     22 RIVER REACHES



                           RECHARGE
 READING ON UNIT   19 WITH FORMAT: (20G15.6)           

 SOLVING FOR HEAD 

    ------------------------------------------------
       NWT REQUIRED            3 OUTER ITERATIONS 
       AND A TOTAL OF          3 INNER ITERATIONS.
    ------------------------------------------------

 OUTPUT CONTROL FOR STRESS PERIOD    3   TIME STEP    1
    SAVE HEAD FOR ALL LAYERS
    SAVE DRAWDOWN FOR ALL LAYERS
    SAVE BUDGET
    PRINT HEAD FOR ALL LAYERS
    PRINT BUDGET
1
              HEAD IN LAYER   1 AT END OF TIME STEP   1 IN STRESS PERIOD    3
  ---------------------------------------------------------------------------

            1           2           3           4           5           6           7           8           9          10
           11          12          13          14          15          16          17          18          19          20
 ........................................................................................................................
   1    0.000       0.000       0.000       0.000       0.000       7.214       7.203       7.228       7.244       7.254    
        7.263       7.309       7.525       7.825       7.529       7.322       7.298       7.307       0.000       0.000    
   2    0.000       0.000       0.000       0.000       7.245       7.255       7.210       7.275       7.283       7.290    
        7.297       7.330       7.500       7.827       7.490       7.298       7.293       7.309       0.000       0.000    
   3    0.000       0.000       0.000       0.000       7.334       7.445       7.483       7.477       7.451       7.448    
        7.448       7.455       7.508       7.829       7.434       7.228       7.288       7.316       0.000       0.000    
   4    0.000       0.000       0.000       7.482       7.553       7.826       7.822       7.824       7.828       7.827    
        7.827       7.821       7.658       7.832       7.441       7.305       7.316       7.337       0.000       0.000    
   5    0.000       0.000       7.801       7.808       7.834       7.824       7.590       7.504       7.471       7.477    
        7.551       7.826       7.832       7.815       7.434       7.336       7.344       7.368       7.392       0.000    
   6    0.000       7.834       7.834       7.831       7.765       7.516       7.380       7.336       7.321       7.320    
        7.357       7.453       7.473       7.456       7.357       7.344       7.367       7.388       7.398       0.000    
   7    0.000       7.474       7.477       7.471       7.432       7.356       7.316       7.302       7.289       7.273    
        7.299       7.332       7.344       7.340       7.319       7.352       7.384       7.404       0.000       0.000    
   8    0.000       7.333       7.341       7.343       7.336       7.323       7.316       7.308       7.286       7.213    
        7.289       7.317       7.327       7.319       7.262       7.356       7.400       7.425       0.000       0.000    
   9    0.000       0.000       7.325       7.328       7.330       7.330       7.329       7.324       7.312       7.294    
        7.315       7.331       7.341       7.344       7.345       7.385       7.420       7.451       7.485       7.501    
  10    0.000       0.000       7.331       7.334       7.336       7.338       7.337       7.334       7.327       7.321    
        7.330       7.342       7.352       7.360       7.373       7.401       7.432       7.461       7.487       7.502    

 HEAD WILL BE SAVED ON UNIT   51 AT END OF TIME STEP    1, STRESS PERIOD    3

 DRAWDOWN WILL BE SAVED ON UNIT   52 AT END OF TIME STEP    1, STRESS PERIOD    3
1
  VOLUMETRIC BUDGET FOR ENTIRE MODEL AT END OF TIME STEP    1, STRESS PERIOD   3
  ------------------------------------------------------------------------------

     CUMULATIVE VOLUMES      L**3       RATES FOR THIS TIME STEP      L**3/T
     ------------------                 ------------------------

           IN:                                      IN:
           ---                                      ---
             STORAGE =        5480.2939               STORAGE =        2923.1177
       CONSTANT HEAD =           0.0000         CONSTANT HEAD =           0.0000
               WELLS =           0.0000                 WELLS =           0.0000
       RIVER LEAKAGE =      854943.2500         RIVER LEAKAGE =         388.0932
            RECHARGE =       60768.7148              RECHARGE =         364.9565

            TOTAL IN =      921192.2500              TOTAL IN =        3676.1675

          OUT:                                     OUT:
          ----                                     ----
             STORAGE =      894684.1875               STORAGE =        2940.1973
       CONSTANT HEAD =           0.0000         CONSTANT HEAD =           0.0000
               WELLS =       25800.0605                 WELLS =         179.3290
       RIVER LEAKAGE =         825.2939         RIVER LEAKAGE =         556.4066
            RECHARGE =           0.0000              RECHARGE =           0.0000

           TOTAL OUT =      921309.5625             TOTAL OUT =        3675.9329

            IN - OUT =        -117.3125              IN - OUT =           0.2346

 PERCENT DISCREPANCY =          -0.01     PERCENT DISCREPANCY =           0.01






         TIME SUMMARY AT END OF TIME STEP    1 IN STRESS PERIOD    3
                    SECONDS     MINUTES      HOURS       DAYS        YEARS
                    -----------------------------------------------------------
   TIME STEP LENGTH  86400.      1440.0      24.000      1.0000     2.73785E-03
 STRESS PERIOD TIME  86400.      1440.0      24.000      1.0000     2.73785E-03
         TOTAL TIME 8.81280E+06 1.46880E+05  2448.0      102.00     0.27926    
1

 SOLVING FOR HEAD 

    ------------------------------------------------
       NWT REQUIRED            3 OUTER ITERATIONS 
       AND A TOTAL OF          3 INNER ITERATIONS.
    ------------------------------------------------

 OUTPUT CONTROL FOR STRESS PERIOD    3   TIME STEP    2
    SAVE HEAD FOR ALL LAYERS
    SAVE DRAWDOWN FOR ALL LAYERS
    SAVE BUDGET
    PRINT HEAD FOR ALL LAYERS
    PRINT BUDGET
1
              HEAD IN LAYER   1 AT END OF TIME STEP   2 IN STRESS PERIOD    3
  ---------------------------------------------------------------------------

            1           2           3           4           5           6           7           8           9          10
           11          12          13          14          15          16          17          18          19          20
 ........................................................................................................................
   1    0.000       0.000       0.000       0.000       0.000       7.214       7.203       7.228       7.244       7.254    
        7.264       7.310       7.527       7.822       7.530       7.322       7.298       7.307       0.000       0.000    
   2    0.000       0.000       0.000       0.000       7.246       7.256       7.211       7.276       7.284       7.291    
        7.298       7.331       7.502       7.823       7.491       7.299       7.294       7.309       0.000       0.000    
   3    0.000       0.000       0.000       0.000       7.336       7.446       7.484       7.479       7.453       7.449    
        7.449       7.456       7.510       7.826       7.435       7.229       7.288       7.316       0.000       0.000    
   4    0.000       0.000       0.000       7.485       7.554       7.823       7.819       7.821       7.824       7.824    
        7.824       7.820       7.660       7.829       7.442       7.305       7.316       7.337       0.000       0.000    
   5    0.000       0.000       7.801       7.808       7.830       7.822       7.592       7.505       7.472       7.479    
        7.553       7.823       7.828       7.813       7.435       7.336       7.345       7.368       7.392       0.000    
   6    0.000       7.830       7.830       7.828       7.765       7.518       7.381       7.337       7.322       7.321    
        7.358       7.454       7.474       7.457       7.357       7.344       7.367       7.388       7.398       0.000    
   7    0.000       7.475       7.478       7.472       7.434       7.357       7.317       7.302       7.290       7.273    
        7.299       7.332       7.344       7.341       7.319       7.352       7.384       7.404       0.000       0.000    
   8    0.000       7.334       7.342       7.344       7.337       7.324       7.316       7.308       7.286       7.214    
        7.289       7.317       7.327       7.319       7.262       7.356       7.400       7.425       0.000       0.000    
   9    0.000       0.000       7.325       7.328       7.330       7.330       7.329       7.324       7.312       7.294    
        7.315       7.331       7.341       7.344       7.344       7.385       7.420       7.451       7.485       7.501    
  10    0.000       0.000       7.331       7.334       7.336       7.338       7.337       7.334       7.327       7.321    
        7.330       7.342       7.352       7.360       7.373       7.401       7.432       7.461       7.487       7.502    

 HEAD WILL BE SAVED ON UNIT   51 AT END OF TIME STEP    2, STRESS PERIOD    3

 DRAWDOWN WILL BE SAVED ON UNIT   52 AT END OF TIME STEP    2, STRESS PERIOD    3
1
  VOLUMETRIC BUDGET FOR ENTIRE MODEL AT END OF TIME STEP    2, STRESS PERIOD   3
  ------------------------------------------------------------------------------

     CUMULATIVE VOLUMES      L**3       RATES FOR THIS TIME STEP      L**3/T
     ------------------                 ------------------------

           IN:                                      IN:
           ---                                      ---
             STORAGE =        7665.8828               STORAGE =        2185.5891
       CONSTANT HEAD =           0.0000         CONSTANT HEAD =           0.0000
               WELLS =           0.0000                 WELLS =           0.0000
       RIVER LEAKAGE =      855687.4375         RIVER LEAKAGE =         744.1768
            RECHARGE =       61133.6719              RECHARGE =         364.9565

            TOTAL IN =      924487.0000              TOTAL IN =        3294.7224

          OUT:                                     OUT:
          ----                                     ----
             STORAGE =      897585.4375               STORAGE =        2901.2661
       CONSTANT HEAD =           0.0000         CONSTANT HEAD =           0.0000
               WELLS =       25979.3887                 WELLS =         179.3290
       RIVER LEAKAGE =        1039.4254         RIVER LEAKAGE =         214.1315
            RECHARGE =           0.0000              RECHARGE =           0.0000

           TOTAL OUT =      924604.2500             TOTAL OUT =        3294.7268

            IN - OUT =        -117.2500              IN - OUT =      -4.3945E-03

 PERCENT DISCREPANCY =          -0.01     PERCENT DISCREPANCY =          -0.00






         TIME SUMMARY AT END OF TIME STEP    2 IN STRESS PERIOD    3
                    SECONDS     MINUTES      HOURS       DAYS        YEARS
                    -----------------------------------------------------------
   TIME STEP LENGTH  86400.      1440.0      24.000      1.0000     2.73785E-03
 STRESS PERIOD TIME 1.72800E+05  2880.0      48.000      2.0000     5.47570E-03
         TOTAL TIME 8.89920E+06 1.48320E+05  2472.0      103.00     0.28200    
1

 SOLVING FOR HEAD 

    ------------------------------------------------
       NWT REQUIRED            3 OUTER ITERATIONS 
       AND A TOTAL OF          3 INNER ITERATIONS.
    ------------------------------------------------

 OUTPUT CONTROL FOR STRESS PERIOD    3   TIME STEP    3
    SAVE HEAD FOR ALL LAYERS
    SAVE DRAWDOWN FOR ALL LAYERS
    SAVE BUDGET
    PRINT HEAD FOR ALL LAYERS
    PRINT BUDGET
1
              HEAD IN LAYER   1 AT END OF TIME STEP   3 IN STRESS PERIOD    3
  ---------------------------------------------------------------------------

            1           2           3           4           5           6           7           8           9          10
           11          12          13          14          15          16          17          18          19          20
 ........................................................................................................................
   1    0.000       0.000       0.000       0.000       0.000       7.214       7.203       7.228       7.244       7.254    
        7.264       7.311       7.528       7.819       7.532       7.323       7.298       7.307       0.000       0.000    
   2    0.000       0.000       0.000       0.000       7.246       7.256       7.213       7.277       7.285       7.292    
        7.299       7.333       7.504       7.821       7.493       7.299       7.294       7.309       0.000       0.000    
   3    0.000       0.000       0.000       0.000       7.337       7.447       7.485       7.480       7.454       7.450    
        7.451       7.458       7.513       7.824       7.437       7.230       7.288       7.316       0.000       0.000    
   4    0.000       0.000       0.000       7.487       7.556       7.820       7.817       7.819       7.822       7.821    
        7.822       7.818       7.661       7.826       7.444       7.306       7.316       7.337       0.000       0.000    
   5    0.000       0.000       7.802       7.807       7.828       7.820       7.593       7.507       7.474       7.480    
        7.554       7.821       7.826       7.812       7.436       7.337       7.345       7.368       7.392       0.000    
   6    0.000       7.828       7.828       7.826       7.765       7.519       7.382       7.338       7.323       7.322    
        7.359       7.455       7.476       7.458       7.358       7.344       7.367       7.388       7.398       0.000    
   7    0.000       7.476       7.480       7.473       7.435       7.358       7.318       7.303       7.290       7.273    
        7.300       7.333       7.345       7.341       7.319       7.352       7.384       7.404       0.000       0.000    
   8    0.000       7.335       7.342       7.345       7.337       7.324       7.316       7.308       7.286       7.214    
        7.289       7.318       7.327       7.319       7.263       7.356       7.400       7.425       0.000       0.000    
   9    0.000       0.000       7.326       7.328       7.330       7.330       7.329       7.324       7.312       7.294    
        7.315       7.331       7.341       7.344       7.344       7.385       7.420       7.451       7.485       7.501    
  10    0.000       0.000       7.331       7.334       7.336       7.338       7.337       7.334       7.327       7.321    
        7.330       7.342       7.352       7.360       7.373       7.401       7.432       7.461       7.487       7.502    

 HEAD WILL BE SAVED ON UNIT   51 AT END OF TIME STEP    3, STRESS PERIOD    3

 DRAWDOWN WILL BE SAVED ON UNIT   52 AT END OF TIME STEP    3, STRESS PERIOD    3
1
  VOLUMETRIC BUDGET FOR ENTIRE MODEL AT END OF TIME STEP    3, STRESS PERIOD   3
  ------------------------------------------------------------------------------

     CUMULATIVE VOLUMES      L**3       RATES FOR THIS TIME STEP      L**3/T
     ------------------                 ------------------------

           IN:                                      IN:
           ---                                      ---
             STORAGE =        9307.1465               STORAGE =        1641.2639
       CONSTANT HEAD =           0.0000         CONSTANT HEAD =           0.0000
               WELLS =           0.0000                 WELLS =           0.0000
       RIVER LEAKAGE =      856770.0625         RIVER LEAKAGE =        1082.6097
            RECHARGE =       61498.6289              RECHARGE =         364.9565

            TOTAL IN =      927575.8125              TOTAL IN =        3088.8301

          OUT:                                     OUT:
          ----                                     ----
             STORAGE =      900454.4375               STORAGE =        2869.0042
       CONSTANT HEAD =           0.0000         CONSTANT HEAD =           0.0000
               WELLS =       26158.7168                 WELLS =         179.3290
       RIVER LEAKAGE =        1080.1012         RIVER LEAKAGE =          40.6758
            RECHARGE =           0.0000              RECHARGE =           0.0000

           TOTAL OUT =      927693.2500             TOTAL OUT =        3089.0090

            IN - OUT =        -117.4375              IN - OUT =          -0.1790

 PERCENT DISCREPANCY =          -0.01     PERCENT DISCREPANCY =          -0.01






         TIME SUMMARY AT END OF TIME STEP    3 IN STRESS PERIOD    3
                    SECONDS     MINUTES      HOURS       DAYS        YEARS
                    -----------------------------------------------------------
   TIME STEP LENGTH  86400.      1440.0      24.000      1.0000     2.73785E-03
 STRESS PERIOD TIME 2.59200E+05  4320.0      72.000      3.0000     8.21355E-03
         TOTAL TIME 8.98560E+06 1.49760E+05  2496.0      104.00     0.28474    
1

 SOLVING FOR HEAD 

    ------------------------------------------------
       NWT REQUIRED            3 OUTER ITERATIONS 
       AND A TOTAL OF          3 INNER ITERATIONS.
    ------------------------------------------------

 OUTPUT CONTROL FOR STRESS PERIOD    3   TIME STEP    4
    SAVE HEAD FOR ALL LAYERS
    SAVE DRAWDOWN FOR ALL LAYERS
    SAVE BUDGET
    PRINT HEAD FOR ALL LAYERS
    PRINT BUDGET
1
              HEAD IN LAYER   1 AT END OF TIME STEP   4 IN STRESS PERIOD    3
  ---------------------------------------------------------------------------

            1           2           3           4           5           6           7           8           9          10
           11          12          13          14          15          16          17          18          19          20
 ........................................................................................................................
   1    0.000       0.000       0.000       0.000       0.000       7.214       7.204       7.229       7.245       7.255    
        7.265       7.312       7.530       7.817       7.533       7.324       7.299       7.307       0.000       0.000    
   2    0.000       0.000       0.000       0.000       7.247       7.257       7.214       7.278       7.286       7.292    
        7.299       7.334       7.506       7.819       7.494       7.300       7.294       7.309       0.000       0.000    
   3    0.000       0.000       0.000       0.000       7.339       7.448       7.486       7.481       7.455       7.452    
        7.452       7.460       7.515       7.822       7.438       7.231       7.288       7.316       0.000       0.000    
   4    0.000       0.000       0.000       7.489       7.557       7.819       7.815       7.817       7.820       7.820    
        7.820       7.817       7.663       7.824       7.445       7.306       7.316       7.337       0.000       0.000    
   5    0.000       0.000       7.803       7.806       7.826       7.818       7.594       7.508       7.475       7.481    
        7.556       7.819       7.824       7.810       7.437       7.337       7.345       7.368       7.392       0.000    
   6    0.000       7.826       7.826       7.824       7.765       7.521       7.384       7.339       7.323       7.323    
        7.360       7.456       7.477       7.459       7.359       7.345       7.367       7.388       7.398       0.000    
   7    0.000       7.478       7.481       7.475       7.436       7.359       7.318       7.303       7.290       7.273    
        7.300       7.334       7.346       7.342       7.320       7.352       7.384       7.404       0.000       0.000    
   8    0.000       7.336       7.343       7.345       7.338       7.324       7.317       7.308       7.286       7.214    
        7.289       7.318       7.327       7.320       7.263       7.356       7.400       7.425       0.000       0.000    
   9    0.000       0.000       7.326       7.328       7.330       7.330       7.329       7.324       7.312       7.294    
        7.315       7.331       7.341       7.344       7.344       7.385       7.420       7.451       7.485       7.501    
  10    0.000       0.000       7.331       7.334       7.336       7.338       7.337       7.334       7.327       7.321    
        7.330       7.342       7.352       7.360       7.373       7.401       7.432       7.461       7.487       7.502    

 HEAD WILL BE SAVED ON UNIT   51 AT END OF TIME STEP    4, STRESS PERIOD    3

 DRAWDOWN WILL BE SAVED ON UNIT   52 AT END OF TIME STEP    4, STRESS PERIOD    3
1
  VOLUMETRIC BUDGET FOR ENTIRE MODEL AT END OF TIME STEP    4, STRESS PERIOD   3
  ------------------------------------------------------------------------------

     CUMULATIVE VOLUMES      L**3       RATES FOR THIS TIME STEP      L**3/T
     ------------------                 ------------------------

           IN:                                      IN:
           ---                                      ---
             STORAGE =       10545.0234               STORAGE =        1237.8765
       CONSTANT HEAD =           0.0000         CONSTANT HEAD =           0.0000
               WELLS =           0.0000                 WELLS =           0.0000
       RIVER LEAKAGE =      858187.9375         RIVER LEAKAGE =        1417.8982
            RECHARGE =       61863.5859              RECHARGE =         364.9565

            TOTAL IN =      930596.5000              TOTAL IN =        3020.7312

          OUT:                                     OUT:
          ----                                     ----
             STORAGE =      903296.1250               STORAGE =        2841.7090
       CONSTANT HEAD =           0.0000         CONSTANT HEAD =           0.0000
               WELLS =       26338.0449                 WELLS =         179.3290
       RIVER LEAKAGE =        1080.1012         RIVER LEAKAGE =           0.0000
            RECHARGE =           0.0000              RECHARGE =           0.0000

           TOTAL OUT =      930714.3125             TOTAL OUT =        3021.0381

            IN - OUT =        -117.8125              IN - OUT =          -0.3069

 PERCENT DISCREPANCY =          -0.01     PERCENT DISCREPANCY =          -0.01






         TIME SUMMARY AT END OF TIME STEP    4 IN STRESS PERIOD    3
                    SECONDS     MINUTES      HOURS       DAYS        YEARS
                    -----------------------------------------------------------
   TIME STEP LENGTH  86400.      1440.0      24.000      1.0000     2.73785E-03
 STRESS PERIOD TIME 3.45600E+05  5760.0      96.000      4.0000     1.09514E-02
         TOTAL TIME 9.07200E+06 1.51200E+05  2520.0      105.00     0.28747    
1

 SOLVING FOR HEAD 

    ------------------------------------------------
       NWT REQUIRED            3 OUTER ITERATIONS 
       AND A TOTAL OF          3 INNER ITERATIONS.
    ------------------------------------------------

 OUTPUT CONTROL FOR STRESS PERIOD    3   TIME STEP    5
    SAVE HEAD FOR ALL LAYERS
    SAVE DRAWDOWN FOR ALL LAYERS
    SAVE BUDGET
    PRINT HEAD FOR ALL LAYERS
    PRINT BUDGET
1
              HEAD IN LAYER   1 AT END OF TIME STEP   5 IN STRESS PERIOD    3
  ---------------------------------------------------------------------------

            1           2           3           4           5           6           7           8           9          10
           11          12          13          14          15          16          17          18          19          20
 ........................................................................................................................
   1    0.000       0.000       0.000       0.000       0.000       7.215       7.204       7.229       7.245       7.255    
        7.265       7.313       7.531       7.816       7.534       7.325       7.299       7.307       0.000       0.000    
   2    0.000       0.000       0.000       0.000       7.248       7.258       7.215       7.278       7.287       7.293    
        7.300       7.335       7.507       7.818       7.495       7.301       7.294       7.309       0.000       0.000    
   3    0.000       0.000       0.000       0.000       7.340       7.449       7.488       7.483       7.457       7.453    
        7.453       7.461       7.517       7.821       7.439       7.232       7.288       7.316       0.000       0.000    
   4    0.000       0.000       0.000       7.492       7.559       7.817       7.814       7.816       7.819       7.818    
        7.819       7.816       7.665       7.823       7.446       7.307       7.316       7.337       0.000       0.000    
   5    0.000       0.000       7.803       7.806       7.825       7.817       7.596       7.510       7.476       7.483    
        7.557       7.818       7.823       7.809       7.438       7.337       7.345       7.368       7.392       0.000    
   6    0.000       7.825       7.825       7.823       7.764       7.522       7.385       7.340       7.324       7.324    
        7.361       7.457       7.478       7.460       7.359       7.345       7.367       7.388       7.398       0.000    
   7    0.000       7.479       7.482       7.476       7.437       7.360       7.319       7.303       7.290       7.274    
        7.300       7.334       7.346       7.343       7.320       7.352       7.384       7.404       0.000       0.000    
   8    0.000       7.337       7.344       7.346       7.339       7.325       7.317       7.308       7.286       7.215    
        7.289       7.318       7.327       7.320       7.263       7.356       7.400       7.425       0.000       0.000    
   9    0.000       0.000       7.326       7.329       7.330       7.330       7.329       7.324       7.312       7.294    
        7.315       7.331       7.341       7.344       7.344       7.385       7.420       7.451       7.485       7.501    
  10    0.000       0.000       7.332       7.334       7.336       7.338       7.337       7.333       7.327       7.321    
        7.330       7.342       7.352       7.360       7.373       7.401       7.432       7.461       7.487       7.501    

 HEAD WILL BE SAVED ON UNIT   51 AT END OF TIME STEP    5, STRESS PERIOD    3

 DRAWDOWN WILL BE SAVED ON UNIT   52 AT END OF TIME STEP    5, STRESS PERIOD    3
1
  VOLUMETRIC BUDGET FOR ENTIRE MODEL AT END OF TIME STEP    5, STRESS PERIOD   3
  ------------------------------------------------------------------------------

     CUMULATIVE VOLUMES      L**3       RATES FOR THIS TIME STEP      L**3/T
     ------------------                 ------------------------

           IN:                                      IN:
           ---                                      ---
             STORAGE =       11482.6680               STORAGE =         937.6442
       CONSTANT HEAD =           0.0000         CONSTANT HEAD =           0.0000
               WELLS =           0.0000                 WELLS =           0.0000
       RIVER LEAKAGE =      859882.3750         RIVER LEAKAGE =        1694.4620
            RECHARGE =       62228.5430              RECHARGE =         364.9565

            TOTAL IN =      933593.6250              TOTAL IN =        2997.0627

          OUT:                                     OUT:
          ----                                     ----
             STORAGE =      906114.2500               STORAGE =        2818.1345
       CONSTANT HEAD =           0.0000         CONSTANT HEAD =           0.0000
               WELLS =       26517.3730                 WELLS =         179.3290
       RIVER LEAKAGE =        1080.1012         RIVER LEAKAGE =           0.0000
            RECHARGE =           0.0000              RECHARGE =           0.0000

           TOTAL OUT =      933711.7500             TOTAL OUT =        2997.4636

            IN - OUT =        -118.1250              IN - OUT =          -0.4009

 PERCENT DISCREPANCY =          -0.01     PERCENT DISCREPANCY =          -0.01






         TIME SUMMARY AT END OF TIME STEP    5 IN STRESS PERIOD    3
                    SECONDS     MINUTES      HOURS       DAYS        YEARS
                    -----------------------------------------------------------
   TIME STEP LENGTH  86400.      1440.0      24.000      1.0000     2.73785E-03
 STRESS PERIOD TIME 4.32000E+05  7200.0      120.00      5.0000     1.36893E-02
         TOTAL TIME 9.15840E+06 1.52640E+05  2544.0      106.00     0.29021    
1

 SOLVING FOR HEAD 

    ------------------------------------------------
       NWT REQUIRED            3 OUTER ITERATIONS 
       AND A TOTAL OF          3 INNER ITERATIONS.
    ------------------------------------------------

 OUTPUT CONTROL FOR STRESS PERIOD    3   TIME STEP    6
    SAVE HEAD FOR ALL LAYERS
    SAVE DRAWDOWN FOR ALL LAYERS
    SAVE BUDGET
    PRINT HEAD FOR ALL LAYERS
    PRINT BUDGET
1
              HEAD IN LAYER   1 AT END OF TIME STEP   6 IN STRESS PERIOD    3
  ---------------------------------------------------------------------------

            1           2           3           4           5           6           7           8           9          10
           11          12          13          14          15          16          17          18          19          20
 ........................................................................................................................
   1    0.000       0.000       0.000       0.000       0.000       7.215       7.204       7.229       7.245       7.255    
        7.266       7.314       7.532       7.815       7.536       7.326       7.299       7.307       0.000       0.000    
   2    0.000       0.000       0.000       0.000       7.248       7.259       7.217       7.279       7.287       7.294    
        7.301       7.337       7.509       7.817       7.497       7.302       7.294       7.309       0.000       0.000    
   3    0.000       0.000       0.000       0.000       7.341       7.451       7.489       7.484       7.458       7.454    
        7.455       7.463       7.519       7.820       7.440       7.233       7.288       7.316       0.000       0.000    
   4    0.000       0.000       0.000       7.494       7.560       7.816       7.813       7.815       7.818       7.817    
        7.818       7.815       7.666       7.822       7.447       7.307       7.316       7.337       0.000       0.000    
   5    0.000       0.000       7.804       7.806       7.824       7.816       7.597       7.511       7.478       7.484    
        7.558       7.817       7.822       7.808       7.439       7.338       7.345       7.368       7.392       0.000    
   6    0.000       7.824       7.824       7.822       7.764       7.523       7.386       7.341       7.325       7.325    
        7.363       7.458       7.479       7.461       7.360       7.345       7.367       7.388       7.398       0.000    
   7    0.000       7.480       7.483       7.477       7.438       7.361       7.319       7.304       7.290       7.274    
        7.301       7.335       7.347       7.343       7.320       7.352       7.384       7.404       0.000       0.000    
   8    0.000       7.338       7.345       7.347       7.339       7.325       7.317       7.308       7.286       7.215    
        7.289       7.318       7.328       7.320       7.264       7.356       7.400       7.425       0.000       0.000    
   9    0.000       0.000       7.326       7.329       7.330       7.330       7.329       7.324       7.312       7.294    
        7.315       7.331       7.341       7.344       7.344       7.385       7.420       7.451       7.485       7.501    
  10    0.000       0.000       7.332       7.334       7.336       7.338       7.337       7.333       7.327       7.321    
        7.330       7.342       7.352       7.360       7.373       7.401       7.432       7.461       7.487       7.501    

 HEAD WILL BE SAVED ON UNIT   51 AT END OF TIME STEP    6, STRESS PERIOD    3

 DRAWDOWN WILL BE SAVED ON UNIT   52 AT END OF TIME STEP    6, STRESS PERIOD    3
1
  VOLUMETRIC BUDGET FOR ENTIRE MODEL AT END OF TIME STEP    6, STRESS PERIOD   3
  ------------------------------------------------------------------------------

     CUMULATIVE VOLUMES      L**3       RATES FOR THIS TIME STEP      L**3/T
     ------------------                 ------------------------

           IN:                                      IN:
           ---                                      ---
             STORAGE =       12195.9209               STORAGE =         713.2534
       CONSTANT HEAD =           0.0000         CONSTANT HEAD =           0.0000
               WELLS =           0.0000                 WELLS =           0.0000
       RIVER LEAKAGE =      861780.4375         RIVER LEAKAGE =        1898.0896
            RECHARGE =       62593.5000              RECHARGE =         364.9565

            TOTAL IN =      936569.8750              TOTAL IN =        2976.2996

          OUT:                                     OUT:
          ----                                     ----
             STORAGE =      908911.6875               STORAGE =        2797.4404
       CONSTANT HEAD =           0.0000         CONSTANT HEAD =           0.0000
               WELLS =       26696.7012                 WELLS =         179.3290
       RIVER LEAKAGE =        1080.1012         RIVER LEAKAGE =           0.0000
            RECHARGE =           0.0000              RECHARGE =           0.0000

           TOTAL OUT =      936688.5000             TOTAL OUT =        2976.7695

            IN - OUT =        -118.6250              IN - OUT =          -0.4700

 PERCENT DISCREPANCY =          -0.01     PERCENT DISCREPANCY =          -0.02






         TIME SUMMARY AT END OF TIME STEP    6 IN STRESS PERIOD    3
                    SECONDS     MINUTES      HOURS       DAYS        YEARS
                    -----------------------------------------------------------
   TIME STEP LENGTH  86400.      1440.0      24.000      1.0000     2.73785E-03
 STRESS PERIOD TIME 5.18400E+05  8640.0      144.00      6.0000     1.64271E-02
         TOTAL TIME 9.24480E+06 1.54080E+05  2568.0      107.00     0.29295    
1

 SOLVING FOR HEAD 

    ------------------------------------------------
       NWT REQUIRED            3 OUTER ITERATIONS 
       AND A TOTAL OF          3 INNER ITERATIONS.
    ------------------------------------------------

 OUTPUT CONTROL FOR STRESS PERIOD    3   TIME STEP    7
    SAVE HEAD FOR ALL LAYERS
    SAVE DRAWDOWN FOR ALL LAYERS
    SAVE BUDGET
    PRINT HEAD FOR ALL LAYERS
    PRINT BUDGET
1
              HEAD IN LAYER   1 AT END OF TIME STEP   7 IN STRESS PERIOD    3
  ---------------------------------------------------------------------------

            1           2           3           4           5           6           7           8           9          10
           11          12          13          14          15          16          17          18          19          20
 ........................................................................................................................
   1    0.000       0.000       0.000       0.000       0.000       7.215       7.205       7.229       7.245       7.255    
        7.266       7.315       7.534       7.815       7.537       7.327       7.299       7.308       0.000       0.000    
   2    0.000       0.000       0.000       0.000       7.249       7.259       7.218       7.280       7.288       7.295    
        7.302       7.338       7.510       7.816       7.498       7.302       7.294       7.309       0.000       0.000    
   3    0.000       0.000       0.000       0.000       7.343       7.452       7.490       7.485       7.459       7.456    
        7.456       7.464       7.521       7.819       7.442       7.234       7.288       7.316       0.000       0.000    
   4    0.000       0.000       0.000       7.496       7.562       7.816       7.812       7.814       7.817       7.817    
        7.817       7.814       7.668       7.822       7.448       7.308       7.316       7.337       0.000       0.000    
   5    0.000       0.000       7.805       7.805       7.823       7.815       7.598       7.513       7.479       7.486    
        7.560       7.816       7.822       7.807       7.440       7.338       7.345       7.368       7.392       0.000    
   6    0.000       7.823       7.824       7.821       7.764       7.525       7.388       7.342       7.326       7.326    
        7.364       7.460       7.480       7.462       7.361       7.345       7.367       7.388       7.398       0.000    
   7    0.000       7.481       7.485       7.478       7.440       7.362       7.320       7.304       7.291       7.274    
        7.301       7.335       7.348       7.344       7.320       7.352       7.384       7.404       0.000       0.000    
   8    0.000       7.339       7.345       7.347       7.340       7.325       7.317       7.309       7.286       7.215    
        7.290       7.318       7.328       7.320       7.264       7.356       7.400       7.425       0.000       0.000    
   9    0.000       0.000       7.327       7.329       7.330       7.330       7.329       7.324       7.312       7.294    
        7.315       7.331       7.341       7.344       7.344       7.385       7.420       7.451       7.485       7.501    
  10    0.000       0.000       7.332       7.334       7.336       7.338       7.337       7.333       7.327       7.321    
        7.330       7.342       7.352       7.360       7.373       7.401       7.432       7.461       7.487       7.501    

 HEAD WILL BE SAVED ON UNIT   51 AT END OF TIME STEP    7, STRESS PERIOD    3

 DRAWDOWN WILL BE SAVED ON UNIT   52 AT END OF TIME STEP    7, STRESS PERIOD    3
1
  VOLUMETRIC BUDGET FOR ENTIRE MODEL AT END OF TIME STEP    7, STRESS PERIOD   3
  ------------------------------------------------------------------------------

     CUMULATIVE VOLUMES      L**3       RATES FOR THIS TIME STEP      L**3/T
     ------------------                 ------------------------

           IN:                                      IN:
           ---                                      ---
             STORAGE =       12740.6787               STORAGE =         544.7581
       CONSTANT HEAD =           0.0000         CONSTANT HEAD =           0.0000
               WELLS =           0.0000                 WELLS =           0.0000
       RIVER LEAKAGE =      863828.4375         RIVER LEAKAGE =        2048.0161
            RECHARGE =       62958.4570              RECHARGE =         364.9565

            TOTAL IN =      939527.5625              TOTAL IN =        2957.7307

          OUT:                                     OUT:
          ----                                     ----
             STORAGE =      911690.6250               STORAGE =        2778.9224
       CONSTANT HEAD =           0.0000         CONSTANT HEAD =           0.0000
               WELLS =       26876.0293                 WELLS =         179.3290
       RIVER LEAKAGE =        1080.1012         RIVER LEAKAGE =           0.0000
            RECHARGE =           0.0000              RECHARGE =           0.0000

           TOTAL OUT =      939646.7500             TOTAL OUT =        2958.2515

            IN - OUT =        -119.1875              IN - OUT =          -0.5208

 PERCENT DISCREPANCY =          -0.01     PERCENT DISCREPANCY =          -0.02






         TIME SUMMARY AT END OF TIME STEP    7 IN STRESS PERIOD    3
                    SECONDS     MINUTES      HOURS       DAYS        YEARS
                    -----------------------------------------------------------
   TIME STEP LENGTH  86400.      1440.0      24.000      1.0000     2.73785E-03
 STRESS PERIOD TIME 6.04800E+05  10080.      168.00      7.0000     1.91650E-02
         TOTAL TIME 9.33120E+06 1.55520E+05  2592.0      108.00     0.29569    
1

 SOLVING FOR HEAD 

    ------------------------------------------------
       NWT REQUIRED            3 OUTER ITERATIONS 
       AND A TOTAL OF          3 INNER ITERATIONS.
    ------------------------------------------------

 OUTPUT CONTROL FOR STRESS PERIOD    3   TIME STEP    8
    SAVE HEAD FOR ALL LAYERS
    SAVE DRAWDOWN FOR ALL LAYERS
    SAVE BUDGET
    PRINT HEAD FOR ALL LAYERS
    PRINT BUDGET
1
              HEAD IN LAYER   1 AT END OF TIME STEP   8 IN STRESS PERIOD    3
  ---------------------------------------------------------------------------

            1           2           3           4           5           6           7           8           9          10
           11          12          13          14          15          16          17          18          19          20
 ........................................................................................................................
   1    0.000       0.000       0.000       0.000       0.000       7.215       7.205       7.230       7.246       7.256    
        7.267       7.316       7.535       7.814       7.538       7.327       7.299       7.308       0.000       0.000    
   2    0.000       0.000       0.000       0.000       7.250       7.260       7.219       7.281       7.289       7.295    
        7.303       7.339       7.512       7.816       7.499       7.303       7.294       7.309       0.000       0.000    
   3    0.000       0.000       0.000       0.000       7.344       7.453       7.491       7.486       7.460       7.457    
        7.457       7.466       7.523       7.819       7.443       7.235       7.289       7.316       0.000       0.000    
   4    0.000       0.000       0.000       7.498       7.563       7.815       7.812       7.814       7.817       7.816    
        7.817       7.813       7.669       7.821       7.449       7.308       7.316       7.337       0.000       0.000    
   5    0.000       0.000       7.805       7.805       7.823       7.815       7.600       7.514       7.480       7.487    
        7.561       7.815       7.821       7.807       7.441       7.339       7.345       7.368       7.392       0.000    
   6    0.000       7.823       7.823       7.821       7.764       7.526       7.389       7.343       7.327       7.327    
        7.365       7.461       7.481       7.463       7.362       7.345       7.367       7.388       7.398       0.000    
   7    0.000       7.483       7.486       7.479       7.441       7.363       7.320       7.304       7.291       7.274    
        7.302       7.336       7.348       7.344       7.321       7.352       7.384       7.404       0.000       0.000    
   8    0.000       7.340       7.346       7.348       7.340       7.326       7.317       7.309       7.286       7.216    
        7.290       7.318       7.328       7.320       7.265       7.356       7.400       7.425       0.000       0.000    
   9    0.000       0.000       7.327       7.329       7.331       7.330       7.329       7.324       7.312       7.294    
        7.315       7.331       7.341       7.344       7.344       7.385       7.420       7.451       7.485       7.501    
  10    0.000       0.000       7.332       7.334       7.336       7.338       7.337       7.333       7.327       7.321    
        7.330       7.342       7.352       7.360       7.373       7.401       7.432       7.461       7.487       7.501    

 HEAD WILL BE SAVED ON UNIT   51 AT END OF TIME STEP    8, STRESS PERIOD    3

 DRAWDOWN WILL BE SAVED ON UNIT   52 AT END OF TIME STEP    8, STRESS PERIOD    3
1
  VOLUMETRIC BUDGET FOR ENTIRE MODEL AT END OF TIME STEP    8, STRESS PERIOD   3
  ------------------------------------------------------------------------------

     CUMULATIVE VOLUMES      L**3       RATES FOR THIS TIME STEP      L**3/T
     ------------------                 ------------------------

           IN:                                      IN:
           ---                                      ---
             STORAGE =       13158.2715               STORAGE =         417.5930
       CONSTANT HEAD =           0.0000         CONSTANT HEAD =           0.0000
               WELLS =           0.0000                 WELLS =           0.0000
       RIVER LEAKAGE =      865986.6875         RIVER LEAKAGE =        2158.2585
            RECHARGE =       63323.4141              RECHARGE =         364.9565

            TOTAL IN =      942468.3750              TOTAL IN =        2940.8081

          OUT:                                     OUT:
          ----                                     ----
             STORAGE =      914452.6875               STORAGE =        2762.0374
       CONSTANT HEAD =           0.0000         CONSTANT HEAD =           0.0000
               WELLS =       27055.3574                 WELLS =         179.3290
       RIVER LEAKAGE =        1080.1012         RIVER LEAKAGE =           0.0000
            RECHARGE =           0.0000              RECHARGE =           0.0000

           TOTAL OUT =      942588.1875             TOTAL OUT =        2941.3665

            IN - OUT =        -119.8125              IN - OUT =          -0.5583

 PERCENT DISCREPANCY =          -0.01     PERCENT DISCREPANCY =          -0.02






         TIME SUMMARY AT END OF TIME STEP    8 IN STRESS PERIOD    3
                    SECONDS     MINUTES      HOURS       DAYS        YEARS
                    -----------------------------------------------------------
   TIME STEP LENGTH  86400.      1440.0      24.000      1.0000     2.73785E-03
 STRESS PERIOD TIME 6.91200E+05  11520.      192.00      8.0000     2.19028E-02
         TOTAL TIME 9.41760E+06 1.56960E+05  2616.0      109.00     0.29843    
1

 SOLVING FOR HEAD 

    ------------------------------------------------
       NWT REQUIRED            3 OUTER ITERATIONS 
       AND A TOTAL OF          3 INNER ITERATIONS.
    ------------------------------------------------

 OUTPUT CONTROL FOR STRESS PERIOD    3   TIME STEP    9
    SAVE HEAD FOR ALL LAYERS
    SAVE DRAWDOWN FOR ALL LAYERS
    SAVE BUDGET
    PRINT HEAD FOR ALL LAYERS
    PRINT BUDGET
1
              HEAD IN LAYER   1 AT END OF TIME STEP   9 IN STRESS PERIOD    3
  ---------------------------------------------------------------------------

            1           2           3           4           5           6           7           8           9          10
           11          12          13          14          15          16          17          18          19          20
 ........................................................................................................................
   1    0.000       0.000       0.000       0.000       0.000       7.216       7.205       7.230       7.246       7.256    
        7.267       7.317       7.537       7.814       7.540       7.328       7.300       7.308       0.000       0.000    
   2    0.000       0.000       0.000       0.000       7.250       7.261       7.221       7.282       7.290       7.296    
        7.304       7.341       7.514       7.816       7.501       7.304       7.295       7.309       0.000       0.000    
   3    0.000       0.000       0.000       0.000       7.346       7.454       7.492       7.487       7.462       7.458    
        7.459       7.468       7.525       7.818       7.444       7.236       7.289       7.316       0.000       0.000    
   4    0.000       0.000       0.000       7.500       7.564       7.815       7.812       7.813       7.816       7.816    
        7.816       7.812       7.671       7.821       7.450       7.309       7.316       7.337       0.000       0.000    
   5    0.000       0.000       7.806       7.804       7.822       7.814       7.601       7.515       7.482       7.488    
        7.562       7.815       7.821       7.806       7.442       7.339       7.345       7.368       7.392       0.000    
   6    0.000       7.822       7.823       7.820       7.764       7.527       7.391       7.344       7.328       7.328    
        7.366       7.462       7.482       7.464       7.362       7.346       7.368       7.388       7.398       0.000    
   7    0.000       7.484       7.487       7.480       7.442       7.364       7.321       7.305       7.291       7.275    
        7.302       7.336       7.349       7.345       7.321       7.352       7.384       7.404       0.000       0.000    
   8    0.000       7.341       7.347       7.349       7.341       7.326       7.317       7.309       7.286       7.216    
        7.290       7.318       7.328       7.320       7.265       7.356       7.400       7.425       0.000       0.000    
   9    0.000       0.000       7.327       7.329       7.331       7.330       7.329       7.324       7.311       7.294    
        7.315       7.331       7.341       7.344       7.344       7.385       7.420       7.451       7.485       7.501    
  10    0.000       0.000       7.332       7.334       7.336       7.338       7.337       7.333       7.327       7.321    
        7.330       7.342       7.352       7.360       7.373       7.401       7.432       7.461       7.487       7.501    

 HEAD WILL BE SAVED ON UNIT   51 AT END OF TIME STEP    9, STRESS PERIOD    3

 DRAWDOWN WILL BE SAVED ON UNIT   52 AT END OF TIME STEP    9, STRESS PERIOD    3
1
  VOLUMETRIC BUDGET FOR ENTIRE MODEL AT END OF TIME STEP    9, STRESS PERIOD   3
  ------------------------------------------------------------------------------

     CUMULATIVE VOLUMES      L**3       RATES FOR THIS TIME STEP      L**3/T
     ------------------                 ------------------------

           IN:                                      IN:
           ---                                      ---
             STORAGE =       13479.3887               STORAGE =         321.1170
       CONSTANT HEAD =           0.0000         CONSTANT HEAD =           0.0000
               WELLS =           0.0000                 WELLS =           0.0000
       RIVER LEAKAGE =      868225.7500         RIVER LEAKAGE =        2239.0850
            RECHARGE =       63688.3711              RECHARGE =         364.9565

            TOTAL IN =      945393.5000              TOTAL IN =        2925.1584

          OUT:                                     OUT:
          ----                                     ----
             STORAGE =      917199.1250               STORAGE =        2746.4150
       CONSTANT HEAD =           0.0000         CONSTANT HEAD =           0.0000
               WELLS =       27234.6855                 WELLS =         179.3290
       RIVER LEAKAGE =        1080.1012         RIVER LEAKAGE =           0.0000
            RECHARGE =           0.0000              RECHARGE =           0.0000

           TOTAL OUT =      945513.9375             TOTAL OUT =        2925.7441

            IN - OUT =        -120.4375              IN - OUT =          -0.5857

 PERCENT DISCREPANCY =          -0.01     PERCENT DISCREPANCY =          -0.02






         TIME SUMMARY AT END OF TIME STEP    9 IN STRESS PERIOD    3
                    SECONDS     MINUTES      HOURS       DAYS        YEARS
                    -----------------------------------------------------------
   TIME STEP LENGTH  86400.      1440.0      24.000      1.0000     2.73785E-03
 STRESS PERIOD TIME 7.77600E+05  12960.      216.00      9.0000     2.46407E-02
         TOTAL TIME 9.50400E+06 1.58400E+05  2640.0      110.00     0.30116    
1

 SOLVING FOR HEAD 

    ------------------------------------------------
       NWT REQUIRED            3 OUTER ITERATIONS 
       AND A TOTAL OF          3 INNER ITERATIONS.
    ------------------------------------------------

 OUTPUT CONTROL FOR STRESS PERIOD    3   TIME STEP   10
    SAVE HEAD FOR ALL LAYERS
    SAVE DRAWDOWN FOR ALL LAYERS
    SAVE BUDGET
    PRINT HEAD FOR ALL LAYERS
    PRINT BUDGET
1
              HEAD IN LAYER   1 AT END OF TIME STEP  10 IN STRESS PERIOD    3
  ---------------------------------------------------------------------------

            1           2           3           4           5           6           7           8           9          10
           11          12          13          14          15          16          17          18          19          20
 ........................................................................................................................
   1    0.000       0.000       0.000       0.000       0.000       7.216       7.206       7.230       7.246       7.256    
        7.268       7.318       7.538       7.814       7.541       7.329       7.300       7.308       0.000       0.000    
   2    0.000       0.000       0.000       0.000       7.251       7.262       7.222       7.283       7.291       7.297    
        7.305       7.342       7.515       7.815       7.502       7.304       7.295       7.309       0.000       0.000    
   3    0.000       0.000       0.000       0.000       7.347       7.455       7.493       7.489       7.463       7.459    
        7.460       7.469       7.527       7.818       7.445       7.237       7.289       7.316       0.000       0.000    
   4    0.000       0.000       0.000       7.503       7.566       7.814       7.811       7.813       7.816       7.816    
        7.816       7.812       7.672       7.821       7.452       7.309       7.316       7.338       0.000       0.000    
   5    0.000       0.000       7.806       7.804       7.822       7.813       7.602       7.517       7.483       7.490    
        7.564       7.814       7.821       7.805       7.443       7.340       7.345       7.368       7.392       0.000    
   6    0.000       7.822       7.823       7.820       7.763       7.529       7.392       7.345       7.328       7.328    
        7.367       7.463       7.483       7.465       7.363       7.346       7.368       7.388       7.398       0.000    
   7    0.000       7.485       7.488       7.482       7.443       7.365       7.322       7.305       7.291       7.275    
        7.302       7.337       7.350       7.345       7.321       7.352       7.384       7.404       0.000       0.000    
   8    0.000       7.342       7.348       7.349       7.341       7.326       7.317       7.309       7.286       7.217    
        7.290       7.319       7.328       7.320       7.265       7.356       7.400       7.425       0.000       0.000    
   9    0.000       0.000       7.327       7.330       7.331       7.331       7.329       7.324       7.311       7.294    
        7.315       7.331       7.341       7.344       7.344       7.385       7.420       7.451       7.485       7.501    
  10    0.000       0.000       7.332       7.334       7.336       7.338       7.337       7.333       7.327       7.321    
        7.330       7.342       7.352       7.360       7.373       7.401       7.432       7.461       7.487       7.501    

 HEAD WILL BE SAVED ON UNIT   51 AT END OF TIME STEP   10, STRESS PERIOD    3

 DRAWDOWN WILL BE SAVED ON UNIT   52 AT END OF TIME STEP   10, STRESS PERIOD    3
1
  VOLUMETRIC BUDGET FOR ENTIRE MODEL AT END OF TIME STEP   10, STRESS PERIOD   3
  ------------------------------------------------------------------------------

     CUMULATIVE VOLUMES      L**3       RATES FOR THIS TIME STEP      L**3/T
     ------------------                 ------------------------

           IN:                                      IN:
           ---                                      ---
             STORAGE =       13726.9121               STORAGE =         247.5232
       CONSTANT HEAD =           0.0000         CONSTANT HEAD =           0.0000
               WELLS =           0.0000                 WELLS =           0.0000
       RIVER LEAKAGE =      870523.7500         RIVER LEAKAGE =        2298.0234
            RECHARGE =       64053.3281              RECHARGE =         364.9565

            TOTAL IN =      948304.0000              TOTAL IN =        2910.5032

          OUT:                                     OUT:
          ----                                     ----
             STORAGE =      919930.8750               STORAGE =        2731.7803
       CONSTANT HEAD =           0.0000         CONSTANT HEAD =           0.0000
               WELLS =       27414.0137                 WELLS =         179.3290
       RIVER LEAKAGE =        1080.1012         RIVER LEAKAGE =           0.0000
            RECHARGE =           0.0000              RECHARGE =           0.0000

           TOTAL OUT =      948425.0000             TOTAL OUT =        2911.1094

            IN - OUT =        -121.0000              IN - OUT =          -0.6062

 PERCENT DISCREPANCY =          -0.01     PERCENT DISCREPANCY =          -0.02






         TIME SUMMARY AT END OF TIME STEP   10 IN STRESS PERIOD    3
                    SECONDS     MINUTES      HOURS       DAYS        YEARS
                    -----------------------------------------------------------
   TIME STEP LENGTH  86400.      1440.0      24.000      1.0000     2.73785E-03
 STRESS PERIOD TIME 8.64000E+05  14400.      240.00      10.000     2.73785E-02
         TOTAL TIME 9.59040E+06 1.59840E+05  2664.0      111.00     0.30390    
1

 SOLVING FOR HEAD 

    ------------------------------------------------
       NWT REQUIRED            3 OUTER ITERATIONS 
       AND A TOTAL OF          3 INNER ITERATIONS.
    ------------------------------------------------

 OUTPUT CONTROL FOR STRESS PERIOD    3   TIME STEP   11
    SAVE HEAD FOR ALL LAYERS
    SAVE DRAWDOWN FOR ALL LAYERS
    SAVE BUDGET
    PRINT HEAD FOR ALL LAYERS
    PRINT BUDGET
1
              HEAD IN LAYER   1 AT END OF TIME STEP  11 IN STRESS PERIOD    3
  ---------------------------------------------------------------------------

            1           2           3           4           5           6           7           8           9          10
           11          12          13          14          15          16          17          18          19          20
 ........................................................................................................................
   1    0.000       0.000       0.000       0.000       0.000       7.216       7.206       7.231       7.247       7.257    
        7.268       7.319       7.539       7.814       7.542       7.330       7.300       7.308       0.000       0.000    
   2    0.000       0.000       0.000       0.000       7.252       7.263       7.223       7.284       7.291       7.298    
        7.306       7.343       7.517       7.815       7.503       7.305       7.295       7.309       0.000       0.000    
   3    0.000       0.000       0.000       0.000       7.348       7.456       7.494       7.490       7.464       7.460    
        7.461       7.471       7.529       7.818       7.447       7.238       7.289       7.316       0.000       0.000    
   4    0.000       0.000       0.000       7.505       7.567       7.814       7.811       7.813       7.816       7.815    
        7.816       7.812       7.674       7.821       7.453       7.310       7.317       7.338       0.000       0.000    
   5    0.000       0.000       7.807       7.804       7.822       7.813       7.603       7.518       7.484       7.491    
        7.565       7.814       7.821       7.805       7.444       7.340       7.345       7.368       7.392       0.000    
   6    0.000       7.822       7.823       7.819       7.763       7.530       7.393       7.346       7.329       7.329    
        7.368       7.464       7.484       7.466       7.364       7.346       7.368       7.388       7.398       0.000    
   7    0.000       7.486       7.489       7.483       7.444       7.366       7.322       7.305       7.292       7.275    
        7.303       7.338       7.350       7.346       7.321       7.352       7.384       7.404       0.000       0.000    
   8    0.000       7.343       7.348       7.350       7.342       7.327       7.318       7.309       7.286       7.217    
        7.290       7.319       7.328       7.320       7.266       7.356       7.400       7.425       0.000       0.000    
   9    0.000       0.000       7.327       7.330       7.331       7.331       7.329       7.324       7.311       7.294    
        7.315       7.331       7.341       7.344       7.344       7.385       7.420       7.451       7.485       7.501    
  10    0.000       0.000       7.332       7.334       7.336       7.338       7.337       7.333       7.326       7.321    
        7.330       7.342       7.351       7.360       7.373       7.401       7.432       7.461       7.487       7.501    

 HEAD WILL BE SAVED ON UNIT   51 AT END OF TIME STEP   11, STRESS PERIOD    3

 DRAWDOWN WILL BE SAVED ON UNIT   52 AT END OF TIME STEP   11, STRESS PERIOD    3
1
  VOLUMETRIC BUDGET FOR ENTIRE MODEL AT END OF TIME STEP   11, STRESS PERIOD   3
  ------------------------------------------------------------------------------

     CUMULATIVE VOLUMES      L**3       RATES FOR THIS TIME STEP      L**3/T
     ------------------                 ------------------------

           IN:                                      IN:
           ---                                      ---
             STORAGE =       13917.9707               STORAGE =         191.0582
       CONSTANT HEAD =           0.0000         CONSTANT HEAD =           0.0000
               WELLS =           0.0000                 WELLS =           0.0000
       RIVER LEAKAGE =      872864.3750         RIVER LEAKAGE =        2340.6184
            RECHARGE =       64418.2852              RECHARGE =         364.9565

            TOTAL IN =      951200.6875              TOTAL IN =        2896.6331

          OUT:                                     OUT:
          ----                                     ----
             STORAGE =      922648.8125               STORAGE =        2717.9248
       CONSTANT HEAD =           0.0000         CONSTANT HEAD =           0.0000
               WELLS =       27593.3418                 WELLS =         179.3290
       RIVER LEAKAGE =        1080.1012         RIVER LEAKAGE =           0.0000
            RECHARGE =           0.0000              RECHARGE =           0.0000

           TOTAL OUT =      951322.2500             TOTAL OUT =        2897.2539

            IN - OUT =        -121.5625              IN - OUT =          -0.6208

 PERCENT DISCREPANCY =          -0.01     PERCENT DISCREPANCY =          -0.02






         TIME SUMMARY AT END OF TIME STEP   11 IN STRESS PERIOD    3
                    SECONDS     MINUTES      HOURS       DAYS        YEARS
                    -----------------------------------------------------------
   TIME STEP LENGTH  86400.      1440.0      24.000      1.0000     2.73785E-03
 STRESS PERIOD TIME 9.50400E+05  15840.      264.00      11.000     3.01164E-02
         TOTAL TIME 9.67680E+06 1.61280E+05  2688.0      112.00     0.30664    
1

 SOLVING FOR HEAD 

    ------------------------------------------------
       NWT REQUIRED            3 OUTER ITERATIONS 
       AND A TOTAL OF          3 INNER ITERATIONS.
    ------------------------------------------------

 OUTPUT CONTROL FOR STRESS PERIOD    3   TIME STEP   12
    SAVE HEAD FOR ALL LAYERS
    SAVE DRAWDOWN FOR ALL LAYERS
    SAVE BUDGET
    PRINT HEAD FOR ALL LAYERS
    PRINT BUDGET
1
              HEAD IN LAYER   1 AT END OF TIME STEP  12 IN STRESS PERIOD    3
  ---------------------------------------------------------------------------

            1           2           3           4           5           6           7           8           9          10
           11          12          13          14          15          16          17          18          19          20
 ........................................................................................................................
   1    0.000       0.000       0.000       0.000       0.000       7.217       7.206       7.231       7.247       7.257    
        7.268       7.320       7.541       7.814       7.543       7.331       7.300       7.308       0.000       0.000    
   2    0.000       0.000       0.000       0.000       7.252       7.263       7.224       7.285       7.292       7.299    
        7.307       7.345       7.518       7.815       7.504       7.306       7.295       7.309       0.000       0.000    
   3    0.000       0.000       0.000       0.000       7.350       7.457       7.495       7.491       7.465       7.462    
        7.462       7.472       7.531       7.818       7.448       7.239       7.289       7.316       0.000       0.000    
   4    0.000       0.000       0.000       7.507       7.568       7.814       7.811       7.813       7.816       7.815    
        7.815       7.811       7.675       7.821       7.454       7.310       7.317       7.338       0.000       0.000    
   5    0.000       0.000       7.807       7.804       7.822       7.813       7.604       7.520       7.486       7.492    
        7.566       7.814       7.821       7.805       7.445       7.340       7.345       7.368       7.392       0.000    
   6    0.000       7.821       7.823       7.819       7.763       7.531       7.395       7.347       7.330       7.330    
        7.369       7.465       7.485       7.467       7.364       7.346       7.368       7.388       7.398       0.000    
   7    0.000       7.487       7.490       7.484       7.446       7.367       7.323       7.306       7.292       7.275    
        7.303       7.338       7.351       7.346       7.322       7.352       7.384       7.404       0.000       0.000    
   8    0.000       7.344       7.349       7.351       7.342       7.327       7.318       7.309       7.286       7.217    
        7.290       7.319       7.329       7.320       7.266       7.356       7.400       7.425       0.000       0.000    
   9    0.000       0.000       7.328       7.330       7.331       7.331       7.329       7.324       7.311       7.294    
        7.315       7.331       7.341       7.344       7.344       7.384       7.420       7.451       7.485       7.501    
  10    0.000       0.000       7.332       7.334       7.336       7.338       7.337       7.333       7.326       7.321    
        7.330       7.342       7.351       7.360       7.373       7.401       7.432       7.461       7.487       7.501    

 HEAD WILL BE SAVED ON UNIT   51 AT END OF TIME STEP   12, STRESS PERIOD    3

 DRAWDOWN WILL BE SAVED ON UNIT   52 AT END OF TIME STEP   12, STRESS PERIOD    3
1
  VOLUMETRIC BUDGET FOR ENTIRE MODEL AT END OF TIME STEP   12, STRESS PERIOD   3
  ------------------------------------------------------------------------------

     CUMULATIVE VOLUMES      L**3       RATES FOR THIS TIME STEP      L**3/T
     ------------------                 ------------------------

           IN:                                      IN:
           ---                                      ---
             STORAGE =       14065.4365               STORAGE =         147.4654
       CONSTANT HEAD =           0.0000         CONSTANT HEAD =           0.0000
               WELLS =           0.0000                 WELLS =           0.0000
       RIVER LEAKAGE =      875235.3750         RIVER LEAKAGE =        2370.9709
            RECHARGE =       64783.2422              RECHARGE =         364.9565

            TOTAL IN =      954084.0625              TOTAL IN =        2883.3928

          OUT:                                     OUT:
          ----                                     ----
             STORAGE =      925353.5000               STORAGE =        2704.6953
       CONSTANT HEAD =           0.0000         CONSTANT HEAD =           0.0000
               WELLS =       27772.6699                 WELLS =         179.3290
       RIVER LEAKAGE =        1080.1012         RIVER LEAKAGE =           0.0000
            RECHARGE =           0.0000              RECHARGE =           0.0000

           TOTAL OUT =      954206.3125             TOTAL OUT =        2884.0244

            IN - OUT =        -122.2500              IN - OUT =          -0.6316

 PERCENT DISCREPANCY =          -0.01     PERCENT DISCREPANCY =          -0.02






         TIME SUMMARY AT END OF TIME STEP   12 IN STRESS PERIOD    3
                    SECONDS     MINUTES      HOURS       DAYS        YEARS
                    -----------------------------------------------------------
   TIME STEP LENGTH  86400.      1440.0      24.000      1.0000     2.73785E-03
 STRESS PERIOD TIME 1.03680E+06  17280.      288.00      12.000     3.28542E-02
         TOTAL TIME 9.76320E+06 1.62720E+05  2712.0      113.00     0.30938    
1

 SOLVING FOR HEAD 

    ------------------------------------------------
       NWT REQUIRED            3 OUTER ITERATIONS 
       AND A TOTAL OF          3 INNER ITERATIONS.
    ------------------------------------------------

 OUTPUT CONTROL FOR STRESS PERIOD    3   TIME STEP   13
    SAVE HEAD FOR ALL LAYERS
    SAVE DRAWDOWN FOR ALL LAYERS
    SAVE BUDGET
    PRINT HEAD FOR ALL LAYERS
    PRINT BUDGET
1
              HEAD IN LAYER   1 AT END OF TIME STEP  13 IN STRESS PERIOD    3
  ---------------------------------------------------------------------------

            1           2           3           4           5           6           7           8           9          10
           11          12          13          14          15          16          17          18          19          20
 ........................................................................................................................
   1    0.000       0.000       0.000       0.000       0.000       7.217       7.207       7.231       7.247       7.257    
        7.269       7.321       7.542       7.814       7.545       7.331       7.300       7.308       0.000       0.000    
   2    0.000       0.000       0.000       0.000       7.253       7.264       7.226       7.286       7.293       7.299    
        7.307       7.346       7.520       7.815       7.506       7.307       7.295       7.309       0.000       0.000    
   3    0.000       0.000       0.000       0.000       7.351       7.458       7.496       7.492       7.467       7.463    
        7.464       7.474       7.533       7.817       7.449       7.240       7.289       7.316       0.000       0.000    
   4    0.000       0.000       0.000       7.509       7.570       7.814       7.811       7.813       7.816       7.815    
        7.815       7.811       7.677       7.821       7.455       7.311       7.317       7.338       0.000       0.000    
   5    0.000       0.000       7.808       7.803       7.822       7.812       7.606       7.521       7.487       7.494    
        7.567       7.814       7.821       7.804       7.446       7.341       7.345       7.368       7.392       0.000    
   6    0.000       7.821       7.823       7.819       7.763       7.532       7.396       7.348       7.331       7.331    
        7.370       7.466       7.486       7.468       7.365       7.347       7.368       7.388       7.398       0.000    
   7    0.000       7.489       7.492       7.485       7.447       7.368       7.323       7.306       7.292       7.276    
        7.304       7.339       7.351       7.347       7.322       7.352       7.384       7.404       0.000       0.000    
   8    0.000       7.345       7.350       7.351       7.343       7.327       7.318       7.309       7.286       7.218    
        7.290       7.319       7.329       7.321       7.266       7.356       7.400       7.425       0.000       0.000    
   9    0.000       0.000       7.328       7.330       7.331       7.331       7.329       7.324       7.311       7.293    
        7.315       7.331       7.341       7.344       7.344       7.384       7.420       7.451       7.485       7.501    
  10    0.000       0.000       7.332       7.334       7.336       7.338       7.337       7.333       7.326       7.321    
        7.330       7.342       7.351       7.360       7.373       7.401       7.432       7.461       7.487       7.501    

 HEAD WILL BE SAVED ON UNIT   51 AT END OF TIME STEP   13, STRESS PERIOD    3

 DRAWDOWN WILL BE SAVED ON UNIT   52 AT END OF TIME STEP   13, STRESS PERIOD    3
1
  VOLUMETRIC BUDGET FOR ENTIRE MODEL AT END OF TIME STEP   13, STRESS PERIOD   3
  ------------------------------------------------------------------------------

     CUMULATIVE VOLUMES      L**3       RATES FOR THIS TIME STEP      L**3/T
     ------------------                 ------------------------

           IN:                                      IN:
           ---                                      ---
             STORAGE =       14179.0381               STORAGE =         113.6019
       CONSTANT HEAD =           0.0000         CONSTANT HEAD =           0.0000
               WELLS =           0.0000                 WELLS =           0.0000
       RIVER LEAKAGE =      877627.5000         RIVER LEAKAGE =        2392.1042
            RECHARGE =       65148.1992              RECHARGE =         364.9565

            TOTAL IN =      956954.7500              TOTAL IN =        2870.6626

          OUT:                                     OUT:
          ----                                     ----
             STORAGE =      928045.5000               STORAGE =        2691.9727
       CONSTANT HEAD =           0.0000         CONSTANT HEAD =           0.0000
               WELLS =       27951.9980                 WELLS =         179.3290
       RIVER LEAKAGE =        1080.1012         RIVER LEAKAGE =           0.0000
            RECHARGE =           0.0000              RECHARGE =           0.0000

           TOTAL OUT =      957077.6250             TOTAL OUT =        2871.3018

            IN - OUT =        -122.8750              IN - OUT =          -0.6392

 PERCENT DISCREPANCY =          -0.01     PERCENT DISCREPANCY =          -0.02






         TIME SUMMARY AT END OF TIME STEP   13 IN STRESS PERIOD    3
                    SECONDS     MINUTES      HOURS       DAYS        YEARS
                    -----------------------------------------------------------
   TIME STEP LENGTH  86400.      1440.0      24.000      1.0000     2.73785E-03
 STRESS PERIOD TIME 1.12320E+06  18720.      312.00      13.000     3.55921E-02
         TOTAL TIME 9.84960E+06 1.64160E+05  2736.0      114.00     0.31211    
1

 SOLVING FOR HEAD 

    ------------------------------------------------
       NWT REQUIRED            3 OUTER ITERATIONS 
       AND A TOTAL OF          3 INNER ITERATIONS.
    ------------------------------------------------

 OUTPUT CONTROL FOR STRESS PERIOD    3   TIME STEP   14
    SAVE HEAD FOR ALL LAYERS
    SAVE DRAWDOWN FOR ALL LAYERS
    SAVE BUDGET
    PRINT HEAD FOR ALL LAYERS
    PRINT BUDGET
1
              HEAD IN LAYER   1 AT END OF TIME STEP  14 IN STRESS PERIOD    3
  ---------------------------------------------------------------------------

            1           2           3           4           5           6           7           8           9          10
           11          12          13          14          15          16          17          18          19          20
 ........................................................................................................................
   1    0.000       0.000       0.000       0.000       0.000       7.217       7.207       7.232       7.247       7.258    
        7.269       7.322       7.543       7.814       7.546       7.332       7.301       7.308       0.000       0.000    
   2    0.000       0.000       0.000       0.000       7.254       7.265       7.227       7.287       7.294       7.300    
        7.308       7.347       7.522       7.815       7.507       7.307       7.296       7.309       0.000       0.000    
   3    0.000       0.000       0.000       0.000       7.352       7.459       7.497       7.493       7.468       7.464    
        7.465       7.475       7.535       7.817       7.450       7.241       7.289       7.316       0.000       0.000    
   4    0.000       0.000       0.000       7.511       7.571       7.814       7.811       7.813       7.816       7.815    
        7.815       7.811       7.678       7.821       7.456       7.312       7.317       7.338       0.000       0.000    
   5    0.000       0.000       7.808       7.803       7.822       7.812       7.607       7.522       7.488       7.495    
        7.568       7.814       7.821       7.804       7.447       7.341       7.346       7.368       7.392       0.000    
   6    0.000       7.821       7.823       7.819       7.763       7.534       7.397       7.349       7.332       7.332    
        7.371       7.467       7.487       7.469       7.366       7.347       7.368       7.388       7.398       0.000    
   7    0.000       7.490       7.493       7.486       7.448       7.369       7.324       7.306       7.292       7.276    
        7.304       7.339       7.352       7.347       7.322       7.352       7.384       7.404       0.000       0.000    
   8    0.000       7.346       7.351       7.352       7.344       7.328       7.318       7.309       7.286       7.218    
        7.290       7.319       7.329       7.321       7.267       7.356       7.400       7.425       0.000       0.000    
   9    0.000       0.000       7.328       7.330       7.331       7.331       7.329       7.324       7.311       7.293    
        7.315       7.331       7.341       7.344       7.344       7.384       7.420       7.451       7.485       7.501    
  10    0.000       0.000       7.332       7.334       7.336       7.338       7.337       7.333       7.326       7.321    
        7.330       7.342       7.351       7.360       7.373       7.401       7.432       7.461       7.487       7.501    

 HEAD WILL BE SAVED ON UNIT   51 AT END OF TIME STEP   14, STRESS PERIOD    3

 DRAWDOWN WILL BE SAVED ON UNIT   52 AT END OF TIME STEP   14, STRESS PERIOD    3
1
  VOLUMETRIC BUDGET FOR ENTIRE MODEL AT END OF TIME STEP   14, STRESS PERIOD   3
  ------------------------------------------------------------------------------

     CUMULATIVE VOLUMES      L**3       RATES FOR THIS TIME STEP      L**3/T
     ------------------                 ------------------------

           IN:                                      IN:
           ---                                      ---
             STORAGE =       14266.1631               STORAGE =          87.1255
       CONSTANT HEAD =           0.0000         CONSTANT HEAD =           0.0000
               WELLS =           0.0000                 WELLS =           0.0000
       RIVER LEAKAGE =      880033.7500         RIVER LEAKAGE =        2406.2742
            RECHARGE =       65513.1562              RECHARGE =         364.9565

            TOTAL IN =      959813.1250              TOTAL IN =        2858.3562

          OUT:                                     OUT:
          ----                                     ----
             STORAGE =      930725.1875               STORAGE =        2679.6714
       CONSTANT HEAD =           0.0000         CONSTANT HEAD =           0.0000
               WELLS =       28131.3262                 WELLS =         179.3290
       RIVER LEAKAGE =        1080.1012         RIVER LEAKAGE =           0.0000
            RECHARGE =           0.0000              RECHARGE =           0.0000

           TOTAL OUT =      959936.6250             TOTAL OUT =        2859.0005

            IN - OUT =        -123.5000              IN - OUT =          -0.6443

 PERCENT DISCREPANCY =          -0.01     PERCENT DISCREPANCY =          -0.02






         TIME SUMMARY AT END OF TIME STEP   14 IN STRESS PERIOD    3
                    SECONDS     MINUTES      HOURS       DAYS        YEARS
                    -----------------------------------------------------------
   TIME STEP LENGTH  86400.      1440.0      24.000      1.0000     2.73785E-03
 STRESS PERIOD TIME 1.20960E+06  20160.      336.00      14.000     3.83299E-02
         TOTAL TIME 9.93600E+06 1.65600E+05  2760.0      115.00     0.31485    
1

 SOLVING FOR HEAD 

    ------------------------------------------------
       NWT REQUIRED            3 OUTER ITERATIONS 
       AND A TOTAL OF          3 INNER ITERATIONS.
    ------------------------------------------------

 OUTPUT CONTROL FOR STRESS PERIOD    3   TIME STEP   15
    SAVE HEAD FOR ALL LAYERS
    SAVE DRAWDOWN FOR ALL LAYERS
    SAVE BUDGET
    PRINT HEAD FOR ALL LAYERS
    PRINT BUDGET
1
              HEAD IN LAYER   1 AT END OF TIME STEP  15 IN STRESS PERIOD    3
  ---------------------------------------------------------------------------

            1           2           3           4           5           6           7           8           9          10
           11          12          13          14          15          16          17          18          19          20
 ........................................................................................................................
   1    0.000       0.000       0.000       0.000       0.000       7.217       7.207       7.232       7.248       7.258    
        7.270       7.323       7.545       7.814       7.547       7.333       7.301       7.308       0.000       0.000    
   2    0.000       0.000       0.000       0.000       7.255       7.266       7.228       7.288       7.295       7.301    
        7.309       7.349       7.523       7.815       7.508       7.308       7.296       7.309       0.000       0.000    
   3    0.000       0.000       0.000       0.000       7.354       7.460       7.498       7.494       7.469       7.465    
        7.466       7.477       7.537       7.817       7.451       7.242       7.290       7.316       0.000       0.000    
   4    0.000       0.000       0.000       7.513       7.572       7.814       7.811       7.813       7.816       7.815    
        7.815       7.810       7.679       7.821       7.457       7.312       7.317       7.338       0.000       0.000    
   5    0.000       0.000       7.809       7.803       7.822       7.812       7.608       7.524       7.489       7.496    
        7.570       7.813       7.821       7.804       7.448       7.342       7.346       7.368       7.392       0.000    
   6    0.000       7.821       7.823       7.819       7.763       7.535       7.398       7.350       7.333       7.333    
        7.373       7.468       7.488       7.470       7.366       7.347       7.368       7.388       7.398       0.000    
   7    0.000       7.491       7.494       7.487       7.449       7.370       7.325       7.307       7.293       7.276    
        7.304       7.340       7.353       7.348       7.322       7.352       7.384       7.404       0.000       0.000    
   8    0.000       7.347       7.351       7.353       7.344       7.328       7.318       7.309       7.286       7.218    
        7.290       7.319       7.329       7.321       7.267       7.356       7.400       7.425       0.000       0.000    
   9    0.000       0.000       7.328       7.331       7.332       7.331       7.329       7.324       7.311       7.293    
        7.315       7.331       7.341       7.344       7.344       7.384       7.420       7.451       7.485       7.501    
  10    0.000       0.000       7.332       7.334       7.336       7.338       7.337       7.333       7.326       7.321    
        7.330       7.342       7.351       7.360       7.373       7.401       7.432       7.461       7.487       7.501    

 HEAD WILL BE SAVED ON UNIT   51 AT END OF TIME STEP   15, STRESS PERIOD    3

 DRAWDOWN WILL BE SAVED ON UNIT   52 AT END OF TIME STEP   15, STRESS PERIOD    3
1
  VOLUMETRIC BUDGET FOR ENTIRE MODEL AT END OF TIME STEP   15, STRESS PERIOD   3
  ------------------------------------------------------------------------------

     CUMULATIVE VOLUMES      L**3       RATES FOR THIS TIME STEP      L**3/T
     ------------------                 ------------------------

           IN:                                      IN:
           ---                                      ---
             STORAGE =       14332.9102               STORAGE =          66.7475
       CONSTANT HEAD =           0.0000         CONSTANT HEAD =           0.0000
               WELLS =           0.0000                 WELLS =           0.0000
       RIVER LEAKAGE =      882448.9375         RIVER LEAKAGE =        2415.1658
            RECHARGE =       65878.1094              RECHARGE =         364.9565

            TOTAL IN =      962660.0000              TOTAL IN =        2846.8699

          OUT:                                     OUT:
          ----                                     ----
             STORAGE =      933393.3750               STORAGE =        2668.1885
       CONSTANT HEAD =           0.0000         CONSTANT HEAD =           0.0000
               WELLS =       28310.6543                 WELLS =         179.3290
       RIVER LEAKAGE =        1080.1012         RIVER LEAKAGE =           0.0000
            RECHARGE =           0.0000              RECHARGE =           0.0000

           TOTAL OUT =      962784.1250             TOTAL OUT =        2847.5176

            IN - OUT =        -124.1250              IN - OUT =          -0.6477

 PERCENT DISCREPANCY =          -0.01     PERCENT DISCREPANCY =          -0.02






         TIME SUMMARY AT END OF TIME STEP   15 IN STRESS PERIOD    3
                    SECONDS     MINUTES      HOURS       DAYS        YEARS
                    -----------------------------------------------------------
   TIME STEP LENGTH  86400.      1440.0      24.000      1.0000     2.73785E-03
 STRESS PERIOD TIME 1.29600E+06  21600.      360.00      15.000     4.10678E-02
         TOTAL TIME 1.00224E+07 1.67040E+05  2784.0      116.00     0.31759    
1

 SOLVING FOR HEAD 

    ------------------------------------------------
       NWT REQUIRED            3 OUTER ITERATIONS 
       AND A TOTAL OF          3 INNER ITERATIONS.
    ------------------------------------------------

 OUTPUT CONTROL FOR STRESS PERIOD    3   TIME STEP   16
    SAVE HEAD FOR ALL LAYERS
    SAVE DRAWDOWN FOR ALL LAYERS
    SAVE BUDGET
    PRINT HEAD FOR ALL LAYERS
    PRINT BUDGET
1
              HEAD IN LAYER   1 AT END OF TIME STEP  16 IN STRESS PERIOD    3
  ---------------------------------------------------------------------------

            1           2           3           4           5           6           7           8           9          10
           11          12          13          14          15          16          17          18          19          20
 ........................................................................................................................
   1    0.000       0.000       0.000       0.000       0.000       7.218       7.208       7.232       7.248       7.258    
        7.270       7.325       7.546       7.814       7.548       7.334       7.301       7.308       0.000       0.000    
   2    0.000       0.000       0.000       0.000       7.255       7.266       7.229       7.288       7.295       7.302    
        7.310       7.350       7.525       7.815       7.509       7.309       7.296       7.309       0.000       0.000    
   3    0.000       0.000       0.000       0.000       7.355       7.462       7.499       7.495       7.470       7.466    
        7.467       7.478       7.538       7.817       7.453       7.242       7.290       7.316       0.000       0.000    
   4    0.000       0.000       0.000       7.515       7.574       7.814       7.811       7.813       7.816       7.815    
        7.815       7.810       7.681       7.821       7.458       7.313       7.317       7.338       0.000       0.000    
   5    0.000       0.000       7.809       7.803       7.822       7.812       7.609       7.525       7.491       7.498    
        7.571       7.813       7.821       7.804       7.449       7.342       7.346       7.368       7.392       0.000    
   6    0.000       7.821       7.823       7.819       7.763       7.536       7.400       7.351       7.333       7.334    
        7.374       7.469       7.489       7.470       7.367       7.347       7.368       7.388       7.398       0.000    
   7    0.000       7.492       7.495       7.488       7.450       7.371       7.325       7.307       7.293       7.276    
        7.305       7.341       7.353       7.348       7.323       7.353       7.384       7.404       0.000       0.000    
   8    0.000       7.347       7.352       7.353       7.345       7.328       7.318       7.309       7.286       7.219    
        7.290       7.320       7.329       7.321       7.267       7.356       7.400       7.425       0.000       0.000    
   9    0.000       0.000       7.329       7.331       7.332       7.331       7.329       7.324       7.311       7.293    
        7.315       7.331       7.341       7.344       7.344       7.384       7.420       7.451       7.485       7.501    
  10    0.000       0.000       7.332       7.334       7.337       7.338       7.337       7.333       7.326       7.321    
        7.330       7.342       7.351       7.360       7.373       7.401       7.432       7.461       7.487       7.501    

 HEAD WILL BE SAVED ON UNIT   51 AT END OF TIME STEP   16, STRESS PERIOD    3

 DRAWDOWN WILL BE SAVED ON UNIT   52 AT END OF TIME STEP   16, STRESS PERIOD    3
1
  VOLUMETRIC BUDGET FOR ENTIRE MODEL AT END OF TIME STEP   16, STRESS PERIOD   3
  ------------------------------------------------------------------------------

     CUMULATIVE VOLUMES      L**3       RATES FOR THIS TIME STEP      L**3/T
     ------------------                 ------------------------

           IN:                                      IN:
           ---                                      ---
             STORAGE =       14384.7432               STORAGE =          51.8334
       CONSTANT HEAD =           0.0000         CONSTANT HEAD =           0.0000
               WELLS =           0.0000                 WELLS =           0.0000
       RIVER LEAKAGE =      884868.9375         RIVER LEAKAGE =        2420.0220
            RECHARGE =       66243.0625              RECHARGE =         364.9565

            TOTAL IN =      965496.7500              TOTAL IN =        2836.8118

          OUT:                                     OUT:
          ----                                     ----
             STORAGE =      936051.5000               STORAGE =        2658.1328
       CONSTANT HEAD =           0.0000         CONSTANT HEAD =           0.0000
               WELLS =       28489.9824                 WELLS =         179.3290
       RIVER LEAKAGE =        1080.1012         RIVER LEAKAGE =           0.0000
            RECHARGE =           0.0000              RECHARGE =           0.0000

           TOTAL OUT =      965621.6250             TOTAL OUT =        2837.4619

            IN - OUT =        -124.8750              IN - OUT =          -0.6501

 PERCENT DISCREPANCY =          -0.01     PERCENT DISCREPANCY =          -0.02






         TIME SUMMARY AT END OF TIME STEP   16 IN STRESS PERIOD    3
                    SECONDS     MINUTES      HOURS       DAYS        YEARS
                    -----------------------------------------------------------
   TIME STEP LENGTH  86400.      1440.0      24.000      1.0000     2.73785E-03
 STRESS PERIOD TIME 1.38240E+06  23040.      384.00      16.000     4.38056E-02
         TOTAL TIME 1.01088E+07 1.68480E+05  2808.0      117.00     0.32033    
1

 SOLVING FOR HEAD 

    ------------------------------------------------
       NWT REQUIRED            3 OUTER ITERATIONS 
       AND A TOTAL OF          3 INNER ITERATIONS.
    ------------------------------------------------

 OUTPUT CONTROL FOR STRESS PERIOD    3   TIME STEP   17
    SAVE HEAD FOR ALL LAYERS
    SAVE DRAWDOWN FOR ALL LAYERS
    SAVE BUDGET
    PRINT HEAD FOR ALL LAYERS
    PRINT BUDGET
1
              HEAD IN LAYER   1 AT END OF TIME STEP  17 IN STRESS PERIOD    3
  ---------------------------------------------------------------------------

            1           2           3           4           5           6           7           8           9          10
           11          12          13          14          15          16          17          18          19          20
 ........................................................................................................................
   1    0.000       0.000       0.000       0.000       0.000       7.218       7.208       7.233       7.248       7.259    
        7.271       7.326       7.547       7.814       7.549       7.335       7.301       7.308       0.000       0.000    
   2    0.000       0.000       0.000       0.000       7.256       7.267       7.230       7.289       7.296       7.303    
        7.311       7.351       7.526       7.815       7.510       7.310       7.296       7.309       0.000       0.000    
   3    0.000       0.000       0.000       0.000       7.356       7.463       7.500       7.496       7.471       7.468    
        7.469       7.480       7.540       7.817       7.454       7.243       7.290       7.316       0.000       0.000    
   4    0.000       0.000       0.000       7.517       7.575       7.814       7.811       7.813       7.816       7.815    
        7.815       7.810       7.682       7.821       7.459       7.313       7.317       7.338       0.000       0.000    
   5    0.000       0.000       7.810       7.803       7.822       7.812       7.610       7.526       7.492       7.499    
        7.572       7.813       7.821       7.803       7.449       7.343       7.346       7.368       7.392       0.000    
   6    0.000       7.821       7.823       7.819       7.763       7.537       7.401       7.352       7.334       7.335    
        7.375       7.469       7.490       7.471       7.368       7.348       7.368       7.388       7.398       0.000    
   7    0.000       7.493       7.496       7.489       7.451       7.372       7.326       7.307       7.293       7.277    
        7.305       7.341       7.354       7.349       7.323       7.353       7.384       7.404       0.000       0.000    
   8    0.000       7.348       7.353       7.354       7.345       7.329       7.319       7.309       7.286       7.219    
        7.290       7.320       7.330       7.321       7.268       7.356       7.400       7.425       0.000       0.000    
   9    0.000       0.000       7.329       7.331       7.332       7.331       7.329       7.324       7.311       7.293    
        7.315       7.331       7.341       7.344       7.344       7.384       7.420       7.451       7.485       7.501    
  10    0.000       0.000       7.332       7.334       7.337       7.338       7.337       7.333       7.326       7.321    
        7.330       7.342       7.351       7.360       7.372       7.401       7.432       7.461       7.487       7.501    

 HEAD WILL BE SAVED ON UNIT   51 AT END OF TIME STEP   17, STRESS PERIOD    3

 DRAWDOWN WILL BE SAVED ON UNIT   52 AT END OF TIME STEP   17, STRESS PERIOD    3
1
  VOLUMETRIC BUDGET FOR ENTIRE MODEL AT END OF TIME STEP   17, STRESS PERIOD   3
  ------------------------------------------------------------------------------

     CUMULATIVE VOLUMES      L**3       RATES FOR THIS TIME STEP      L**3/T
     ------------------                 ------------------------

           IN:                                      IN:
           ---                                      ---
             STORAGE =       14426.2207               STORAGE =          41.4774
       CONSTANT HEAD =           0.0000         CONSTANT HEAD =           0.0000
               WELLS =           0.0000                 WELLS =           0.0000
       RIVER LEAKAGE =      887290.7500         RIVER LEAKAGE =        2421.8298
            RECHARGE =       66608.0156              RECHARGE =         364.9565

            TOTAL IN =      968325.0000              TOTAL IN =        2828.2639

          OUT:                                     OUT:
          ----                                     ----
             STORAGE =      938701.0625               STORAGE =        2649.5859
       CONSTANT HEAD =           0.0000         CONSTANT HEAD =           0.0000
               WELLS =       28669.3105                 WELLS =         179.3290
       RIVER LEAKAGE =        1080.1012         RIVER LEAKAGE =           0.0000
            RECHARGE =           0.0000              RECHARGE =           0.0000

           TOTAL OUT =      968450.5000             TOTAL OUT =        2828.9150

            IN - OUT =        -125.5000              IN - OUT =          -0.6511

 PERCENT DISCREPANCY =          -0.01     PERCENT DISCREPANCY =          -0.02






         TIME SUMMARY AT END OF TIME STEP   17 IN STRESS PERIOD    3
                    SECONDS     MINUTES      HOURS       DAYS        YEARS
                    -----------------------------------------------------------
   TIME STEP LENGTH  86400.      1440.0      24.000      1.0000     2.73785E-03
 STRESS PERIOD TIME 1.46880E+06  24480.      408.00      17.000     4.65435E-02
         TOTAL TIME 1.01952E+07 1.69920E+05  2832.0      118.00     0.32307    
1

 SOLVING FOR HEAD 

    ------------------------------------------------
       NWT REQUIRED            3 OUTER ITERATIONS 
       AND A TOTAL OF          3 INNER ITERATIONS.
    ------------------------------------------------

 OUTPUT CONTROL FOR STRESS PERIOD    3   TIME STEP   18
    SAVE HEAD FOR ALL LAYERS
    SAVE DRAWDOWN FOR ALL LAYERS
    SAVE BUDGET
    PRINT HEAD FOR ALL LAYERS
    PRINT BUDGET
1
              HEAD IN LAYER   1 AT END OF TIME STEP  18 IN STRESS PERIOD    3
  ---------------------------------------------------------------------------

            1           2           3           4           5           6           7           8           9          10
           11          12          13          14          15          16          17          18          19          20
 ........................................................................................................................
   1    0.000       0.000       0.000       0.000       0.000       7.218       7.208       7.233       7.249       7.259    
        7.271       7.327       7.548       7.814       7.551       7.335       7.302       7.308       0.000       0.000    
   2    0.000       0.000       0.000       0.000       7.257       7.268       7.232       7.290       7.297       7.303    
        7.312       7.353       7.528       7.815       7.511       7.310       7.296       7.309       0.000       0.000    
   3    0.000       0.000       0.000       0.000       7.358       7.464       7.501       7.498       7.473       7.469    
        7.470       7.481       7.542       7.817       7.455       7.244       7.290       7.316       0.000       0.000    
   4    0.000       0.000       0.000       7.519       7.576       7.814       7.811       7.813       7.816       7.815    
        7.815       7.810       7.683       7.821       7.460       7.314       7.317       7.338       0.000       0.000    
   5    0.000       0.000       7.810       7.803       7.822       7.812       7.611       7.527       7.493       7.500    
        7.573       7.813       7.821       7.803       7.450       7.343       7.346       7.368       7.392       0.000    
   6    0.000       7.821       7.823       7.819       7.763       7.538       7.402       7.353       7.335       7.335    
        7.376       7.470       7.491       7.472       7.368       7.348       7.368       7.388       7.398       0.000    
   7    0.000       7.495       7.497       7.490       7.452       7.373       7.326       7.308       7.293       7.277    
        7.306       7.342       7.355       7.349       7.323       7.353       7.384       7.404       0.000       0.000    
   8    0.000       7.349       7.354       7.355       7.346       7.329       7.319       7.309       7.286       7.219    
        7.290       7.320       7.330       7.321       7.268       7.356       7.400       7.425       0.000       0.000    
   9    0.000       0.000       7.329       7.331       7.332       7.331       7.329       7.324       7.311       7.293    
        7.315       7.331       7.341       7.344       7.344       7.384       7.420       7.451       7.485       7.501    
  10    0.000       0.000       7.332       7.334       7.337       7.338       7.337       7.333       7.326       7.321    
        7.330       7.342       7.351       7.360       7.372       7.401       7.431       7.461       7.487       7.501    

 HEAD WILL BE SAVED ON UNIT   51 AT END OF TIME STEP   18, STRESS PERIOD    3

 DRAWDOWN WILL BE SAVED ON UNIT   52 AT END OF TIME STEP   18, STRESS PERIOD    3
1
  VOLUMETRIC BUDGET FOR ENTIRE MODEL AT END OF TIME STEP   18, STRESS PERIOD   3
  ------------------------------------------------------------------------------

     CUMULATIVE VOLUMES      L**3       RATES FOR THIS TIME STEP      L**3/T
     ------------------                 ------------------------

           IN:                                      IN:
           ---                                      ---
             STORAGE =       14460.1611               STORAGE =          33.9407
       CONSTANT HEAD =           0.0000         CONSTANT HEAD =           0.0000
               WELLS =           0.0000                 WELLS =           0.0000
       RIVER LEAKAGE =      889712.0625         RIVER LEAKAGE =        2421.2834
            RECHARGE =       66972.9688              RECHARGE =         364.9565

            TOTAL IN =      971145.2500              TOTAL IN =        2820.1807

          OUT:                                     OUT:
          ----                                     ----
             STORAGE =      941342.5625               STORAGE =        2641.5034
       CONSTANT HEAD =           0.0000         CONSTANT HEAD =           0.0000
               WELLS =       28848.6387                 WELLS =         179.3290
       RIVER LEAKAGE =        1080.1012         RIVER LEAKAGE =           0.0000
            RECHARGE =           0.0000              RECHARGE =           0.0000

           TOTAL OUT =      971271.3125             TOTAL OUT =        2820.8325

            IN - OUT =        -126.0625              IN - OUT =          -0.6519

 PERCENT DISCREPANCY =          -0.01     PERCENT DISCREPANCY =          -0.02






         TIME SUMMARY AT END OF TIME STEP   18 IN STRESS PERIOD    3
                    SECONDS     MINUTES      HOURS       DAYS        YEARS
                    -----------------------------------------------------------
   TIME STEP LENGTH  86400.      1440.0      24.000      1.0000     2.73785E-03
 STRESS PERIOD TIME 1.55520E+06  25920.      432.00      18.000     4.92813E-02
         TOTAL TIME 1.02816E+07 1.71360E+05  2856.0      119.00     0.32580    
1

 SOLVING FOR HEAD 

    ------------------------------------------------
       NWT REQUIRED            3 OUTER ITERATIONS 
       AND A TOTAL OF          3 INNER ITERATIONS.
    ------------------------------------------------

 OUTPUT CONTROL FOR STRESS PERIOD    3   TIME STEP   19
    SAVE HEAD FOR ALL LAYERS
    SAVE DRAWDOWN FOR ALL LAYERS
    SAVE BUDGET
    PRINT HEAD FOR ALL LAYERS
    PRINT BUDGET
1
              HEAD IN LAYER   1 AT END OF TIME STEP  19 IN STRESS PERIOD    3
  ---------------------------------------------------------------------------

            1           2           3           4           5           6           7           8           9          10
           11          12          13          14          15          16          17          18          19          20
 ........................................................................................................................
   1    0.000       0.000       0.000       0.000       0.000       7.219       7.209       7.233       7.249       7.259    
        7.272       7.328       7.550       7.814       7.552       7.336       7.302       7.308       0.000       0.000    
   2    0.000       0.000       0.000       0.000       7.257       7.269       7.233       7.291       7.298       7.304    
        7.313       7.354       7.529       7.815       7.513       7.311       7.296       7.310       0.000       0.000    
   3    0.000       0.000       0.000       0.000       7.359       7.465       7.502       7.499       7.474       7.470    
        7.471       7.483       7.544       7.817       7.456       7.245       7.290       7.316       0.000       0.000    
   4    0.000       0.000       0.000       7.521       7.578       7.814       7.811       7.813       7.816       7.815    
        7.815       7.810       7.685       7.821       7.461       7.314       7.318       7.338       0.000       0.000    
   5    0.000       0.000       7.810       7.803       7.822       7.812       7.612       7.529       7.494       7.501    
        7.574       7.813       7.821       7.803       7.451       7.344       7.346       7.368       7.392       0.000    
   6    0.000       7.821       7.823       7.819       7.763       7.539       7.404       7.354       7.336       7.336    
        7.377       7.471       7.492       7.473       7.369       7.348       7.368       7.388       7.398       0.000    
   7    0.000       7.496       7.498       7.491       7.453       7.373       7.327       7.308       7.294       7.277    
        7.306       7.342       7.355       7.350       7.324       7.353       7.384       7.404       0.000       0.000    
   8    0.000       7.350       7.354       7.356       7.346       7.329       7.319       7.309       7.286       7.219    
        7.290       7.320       7.330       7.321       7.268       7.356       7.400       7.425       0.000       0.000    
   9    0.000       0.000       7.329       7.331       7.332       7.331       7.329       7.324       7.311       7.293    
        7.315       7.331       7.341       7.344       7.344       7.384       7.420       7.451       7.485       7.501    
  10    0.000       0.000       7.332       7.334       7.337       7.338       7.337       7.333       7.326       7.321    
        7.330       7.342       7.351       7.360       7.372       7.401       7.431       7.461       7.487       7.501    

 HEAD WILL BE SAVED ON UNIT   51 AT END OF TIME STEP   19, STRESS PERIOD    3

 DRAWDOWN WILL BE SAVED ON UNIT   52 AT END OF TIME STEP   19, STRESS PERIOD    3
1
  VOLUMETRIC BUDGET FOR ENTIRE MODEL AT END OF TIME STEP   19, STRESS PERIOD   3
  ------------------------------------------------------------------------------

     CUMULATIVE VOLUMES      L**3       RATES FOR THIS TIME STEP      L**3/T
     ------------------                 ------------------------

           IN:                                      IN:
           ---                                      ---
             STORAGE =       14488.5156               STORAGE =          28.3540
       CONSTANT HEAD =           0.0000         CONSTANT HEAD =           0.0000
               WELLS =           0.0000                 WELLS =           0.0000
       RIVER LEAKAGE =      892131.0000         RIVER LEAKAGE =        2418.9246
            RECHARGE =       67337.9219              RECHARGE =         364.9565

            TOTAL IN =      973957.4375              TOTAL IN =        2812.2351

          OUT:                                     OUT:
          ----                                     ----
             STORAGE =      943976.1250               STORAGE =        2633.5579
       CONSTANT HEAD =           0.0000         CONSTANT HEAD =           0.0000
               WELLS =       29027.9668                 WELLS =         179.3290
       RIVER LEAKAGE =        1080.1012         RIVER LEAKAGE =           0.0000
            RECHARGE =           0.0000              RECHARGE =           0.0000

           TOTAL OUT =      974084.1875             TOTAL OUT =        2812.8870

            IN - OUT =        -126.7500              IN - OUT =          -0.6519

 PERCENT DISCREPANCY =          -0.01     PERCENT DISCREPANCY =          -0.02






         TIME SUMMARY AT END OF TIME STEP   19 IN STRESS PERIOD    3
                    SECONDS     MINUTES      HOURS       DAYS        YEARS
                    -----------------------------------------------------------
   TIME STEP LENGTH  86400.      1440.0      24.000      1.0000     2.73785E-03
 STRESS PERIOD TIME 1.64160E+06  27360.      456.00      19.000     5.20192E-02
         TOTAL TIME 1.03680E+07 1.72800E+05  2880.0      120.00     0.32854    
1

 SOLVING FOR HEAD 

    ------------------------------------------------
       NWT REQUIRED            3 OUTER ITERATIONS 
       AND A TOTAL OF          3 INNER ITERATIONS.
    ------------------------------------------------

 OUTPUT CONTROL FOR STRESS PERIOD    3   TIME STEP   20
    SAVE HEAD FOR ALL LAYERS
    SAVE DRAWDOWN FOR ALL LAYERS
    SAVE BUDGET
    PRINT HEAD FOR ALL LAYERS
    PRINT BUDGET
1
              HEAD IN LAYER   1 AT END OF TIME STEP  20 IN STRESS PERIOD    3
  ---------------------------------------------------------------------------

            1           2           3           4           5           6           7           8           9          10
           11          12          13          14          15          16          17          18          19          20
 ........................................................................................................................
   1    0.000       0.000       0.000       0.000       0.000       7.219       7.209       7.234       7.249       7.260    
        7.272       7.329       7.551       7.814       7.553       7.337       7.302       7.308       0.000       0.000    
   2    0.000       0.000       0.000       0.000       7.258       7.270       7.234       7.292       7.299       7.305    
        7.314       7.355       7.531       7.815       7.514       7.312       7.297       7.310       0.000       0.000    
   3    0.000       0.000       0.000       0.000       7.360       7.466       7.503       7.500       7.475       7.471    
        7.472       7.484       7.546       7.817       7.457       7.246       7.290       7.316       0.000       0.000    
   4    0.000       0.000       0.000       7.523       7.579       7.814       7.811       7.813       7.816       7.815    
        7.815       7.810       7.686       7.821       7.462       7.315       7.318       7.338       0.000       0.000    
   5    0.000       0.000       7.811       7.803       7.822       7.812       7.613       7.530       7.496       7.503    
        7.575       7.813       7.821       7.803       7.452       7.344       7.346       7.368       7.392       0.000    
   6    0.000       7.821       7.823       7.819       7.763       7.541       7.405       7.355       7.337       7.337    
        7.378       7.472       7.493       7.474       7.370       7.348       7.368       7.388       7.398       0.000    
   7    0.000       7.497       7.499       7.492       7.454       7.374       7.328       7.308       7.294       7.278    
        7.307       7.343       7.356       7.350       7.324       7.353       7.384       7.404       0.000       0.000    
   8    0.000       7.351       7.355       7.356       7.347       7.330       7.319       7.309       7.286       7.220    
        7.291       7.320       7.330       7.322       7.269       7.356       7.400       7.425       0.000       0.000    
   9    0.000       0.000       7.329       7.332       7.332       7.331       7.329       7.324       7.311       7.293    
        7.315       7.331       7.341       7.344       7.344       7.384       7.420       7.451       7.485       7.501    
  10    0.000       0.000       7.332       7.334       7.337       7.338       7.337       7.333       7.326       7.321    
        7.330       7.342       7.351       7.360       7.372       7.401       7.431       7.461       7.487       7.501    

 HEAD WILL BE SAVED ON UNIT   51 AT END OF TIME STEP   20, STRESS PERIOD    3

 DRAWDOWN WILL BE SAVED ON UNIT   52 AT END OF TIME STEP   20, STRESS PERIOD    3
1
  VOLUMETRIC BUDGET FOR ENTIRE MODEL AT END OF TIME STEP   20, STRESS PERIOD   3
  ------------------------------------------------------------------------------

     CUMULATIVE VOLUMES      L**3       RATES FOR THIS TIME STEP      L**3/T
     ------------------                 ------------------------

           IN:                                      IN:
           ---                                      ---
             STORAGE =       14512.5801               STORAGE =          24.0648
       CONSTANT HEAD =           0.0000         CONSTANT HEAD =           0.0000
               WELLS =           0.0000                 WELLS =           0.0000
       RIVER LEAKAGE =      894546.1875         RIVER LEAKAGE =        2415.1658
            RECHARGE =       67702.8750              RECHARGE =         364.9565

            TOTAL IN =      976761.6250              TOTAL IN =        2804.1870

          OUT:                                     OUT:
          ----                                     ----
             STORAGE =      946601.6250               STORAGE =        2625.5090
       CONSTANT HEAD =           0.0000         CONSTANT HEAD =           0.0000
               WELLS =       29207.2949                 WELLS =         179.3290
       RIVER LEAKAGE =        1080.1012         RIVER LEAKAGE =           0.0000
            RECHARGE =           0.0000              RECHARGE =           0.0000

           TOTAL OUT =      976889.0625             TOTAL OUT =        2804.8381

            IN - OUT =        -127.4375              IN - OUT =          -0.6511

 PERCENT DISCREPANCY =          -0.01     PERCENT DISCREPANCY =          -0.02






         TIME SUMMARY AT END OF TIME STEP   20 IN STRESS PERIOD    3
                    SECONDS     MINUTES      HOURS       DAYS        YEARS
                    -----------------------------------------------------------
   TIME STEP LENGTH  86400.      1440.0      24.000      1.0000     2.73785E-03
 STRESS PERIOD TIME 1.72800E+06  28800.      480.00      20.000     5.47570E-02
         TOTAL TIME 1.04544E+07 1.74240E+05  2904.0      121.00     0.33128    
1

 SOLVING FOR HEAD 

    ------------------------------------------------
       NWT REQUIRED            3 OUTER ITERATIONS 
       AND A TOTAL OF          3 INNER ITERATIONS.
    ------------------------------------------------

 OUTPUT CONTROL FOR STRESS PERIOD    3   TIME STEP   21
    SAVE HEAD FOR ALL LAYERS
    SAVE DRAWDOWN FOR ALL LAYERS
    SAVE BUDGET
    PRINT HEAD FOR ALL LAYERS
    PRINT BUDGET
1
              HEAD IN LAYER   1 AT END OF TIME STEP  21 IN STRESS PERIOD    3
  ---------------------------------------------------------------------------

            1           2           3           4           5           6           7           8           9          10
           11          12          13          14          15          16          17          18          19          20
 ........................................................................................................................
   1    0.000       0.000       0.000       0.000       0.000       7.219       7.210       7.234       7.250       7.260    
        7.273       7.330       7.552       7.814       7.554       7.338       7.302       7.308       0.000       0.000    
   2    0.000       0.000       0.000       0.000       7.259       7.270       7.235       7.293       7.299       7.306    
        7.315       7.357       7.532       7.815       7.515       7.313       7.297       7.310       0.000       0.000    
   3    0.000       0.000       0.000       0.000       7.362       7.467       7.504       7.501       7.476       7.472    
        7.473       7.486       7.548       7.817       7.458       7.247       7.291       7.316       0.000       0.000    
   4    0.000       0.000       0.000       7.525       7.580       7.814       7.811       7.813       7.816       7.815    
        7.815       7.810       7.687       7.821       7.463       7.315       7.318       7.338       0.000       0.000    
   5    0.000       0.000       7.811       7.803       7.822       7.812       7.615       7.531       7.497       7.504    
        7.576       7.813       7.821       7.803       7.453       7.344       7.346       7.368       7.392       0.000    
   6    0.000       7.821       7.823       7.819       7.763       7.542       7.406       7.356       7.338       7.338    
        7.379       7.473       7.494       7.475       7.371       7.349       7.368       7.388       7.397       0.000    
   7    0.000       7.498       7.500       7.493       7.455       7.375       7.328       7.309       7.294       7.278    
        7.307       7.343       7.356       7.351       7.324       7.353       7.384       7.404       0.000       0.000    
   8    0.000       7.352       7.356       7.357       7.348       7.330       7.319       7.309       7.286       7.220    
        7.291       7.320       7.330       7.322       7.269       7.356       7.400       7.425       0.000       0.000    
   9    0.000       0.000       7.330       7.332       7.333       7.331       7.329       7.324       7.311       7.293    
        7.315       7.331       7.341       7.344       7.344       7.384       7.420       7.451       7.485       7.501    
  10    0.000       0.000       7.332       7.334       7.337       7.338       7.337       7.333       7.326       7.321    
        7.330       7.342       7.351       7.360       7.372       7.401       7.431       7.461       7.487       7.501    

 HEAD WILL BE SAVED ON UNIT   51 AT END OF TIME STEP   21, STRESS PERIOD    3

 DRAWDOWN WILL BE SAVED ON UNIT   52 AT END OF TIME STEP   21, STRESS PERIOD    3
1
  VOLUMETRIC BUDGET FOR ENTIRE MODEL AT END OF TIME STEP   21, STRESS PERIOD   3
  ------------------------------------------------------------------------------

     CUMULATIVE VOLUMES      L**3       RATES FOR THIS TIME STEP      L**3/T
     ------------------                 ------------------------

           IN:                                      IN:
           ---                                      ---
             STORAGE =       14533.1289               STORAGE =          20.5488
       CONSTANT HEAD =           0.0000         CONSTANT HEAD =           0.0000
               WELLS =           0.0000                 WELLS =           0.0000
       RIVER LEAKAGE =      896956.5000         RIVER LEAKAGE =        2410.3218
            RECHARGE =       68067.8281              RECHARGE =         364.9565

            TOTAL IN =      979557.4375              TOTAL IN =        2795.8271

          OUT:                                     OUT:
          ----                                     ----
             STORAGE =      949218.7500               STORAGE =        2617.1479
       CONSTANT HEAD =           0.0000         CONSTANT HEAD =           0.0000
               WELLS =       29386.6230                 WELLS =         179.3290
       RIVER LEAKAGE =        1080.1012         RIVER LEAKAGE =           0.0000
            RECHARGE =           0.0000              RECHARGE =           0.0000

           TOTAL OUT =      979685.5000             TOTAL OUT =        2796.4771

            IN - OUT =        -128.0625              IN - OUT =          -0.6499

 PERCENT DISCREPANCY =          -0.01     PERCENT DISCREPANCY =          -0.02






         TIME SUMMARY AT END OF TIME STEP   21 IN STRESS PERIOD    3
                    SECONDS     MINUTES      HOURS       DAYS        YEARS
                    -----------------------------------------------------------
   TIME STEP LENGTH  86400.      1440.0      24.000      1.0000     2.73785E-03
 STRESS PERIOD TIME 1.81440E+06  30240.      504.00      21.000     5.74949E-02
         TOTAL TIME 1.05408E+07 1.75680E+05  2928.0      122.00     0.33402    
1

 SOLVING FOR HEAD 

    ------------------------------------------------
       NWT REQUIRED            3 OUTER ITERATIONS 
       AND A TOTAL OF          3 INNER ITERATIONS.
    ------------------------------------------------

 OUTPUT CONTROL FOR STRESS PERIOD    3   TIME STEP   22
    SAVE HEAD FOR ALL LAYERS
    SAVE DRAWDOWN FOR ALL LAYERS
    SAVE BUDGET
    PRINT HEAD FOR ALL LAYERS
    PRINT BUDGET
1
              HEAD IN LAYER   1 AT END OF TIME STEP  22 IN STRESS PERIOD    3
  ---------------------------------------------------------------------------

            1           2           3           4           5           6           7           8           9          10
           11          12          13          14          15          16          17          18          19          20
 ........................................................................................................................
   1    0.000       0.000       0.000       0.000       0.000       7.220       7.210       7.235       7.250       7.260    
        7.274       7.331       7.553       7.814       7.555       7.339       7.303       7.308       0.000       0.000    
   2    0.000       0.000       0.000       0.000       7.260       7.271       7.236       7.294       7.300       7.306    
        7.316       7.358       7.533       7.815       7.516       7.313       7.297       7.310       0.000       0.000    
   3    0.000       0.000       0.000       0.000       7.363       7.468       7.505       7.502       7.477       7.473    
        7.475       7.487       7.549       7.817       7.459       7.248       7.291       7.316       0.000       0.000    
   4    0.000       0.000       0.000       7.527       7.581       7.814       7.811       7.813       7.816       7.815    
        7.815       7.810       7.689       7.821       7.464       7.316       7.318       7.338       0.000       0.000    
   5    0.000       0.000       7.811       7.803       7.822       7.812       7.616       7.532       7.498       7.505    
        7.577       7.813       7.821       7.803       7.454       7.345       7.346       7.368       7.392       0.000    
   6    0.000       7.821       7.823       7.819       7.763       7.543       7.407       7.357       7.338       7.339    
        7.380       7.474       7.495       7.476       7.371       7.349       7.368       7.388       7.397       0.000    
   7    0.000       7.499       7.501       7.494       7.456       7.376       7.329       7.309       7.294       7.278    
        7.307       7.344       7.357       7.351       7.324       7.353       7.384       7.404       0.000       0.000    
   8    0.000       7.353       7.357       7.358       7.348       7.331       7.319       7.309       7.286       7.220    
        7.291       7.320       7.330       7.322       7.269       7.356       7.400       7.425       0.000       0.000    
   9    0.000       0.000       7.330       7.332       7.333       7.332       7.329       7.324       7.311       7.293    
        7.315       7.331       7.341       7.344       7.344       7.384       7.420       7.451       7.484       7.501    
  10    0.000       0.000       7.332       7.334       7.337       7.338       7.337       7.333       7.326       7.321    
        7.330       7.342       7.351       7.360       7.372       7.400       7.431       7.461       7.487       7.501    

 HEAD WILL BE SAVED ON UNIT   51 AT END OF TIME STEP   22, STRESS PERIOD    3

 DRAWDOWN WILL BE SAVED ON UNIT   52 AT END OF TIME STEP   22, STRESS PERIOD    3
1
  VOLUMETRIC BUDGET FOR ENTIRE MODEL AT END OF TIME STEP   22, STRESS PERIOD   3
  ------------------------------------------------------------------------------

     CUMULATIVE VOLUMES      L**3       RATES FOR THIS TIME STEP      L**3/T
     ------------------                 ------------------------

           IN:                                      IN:
           ---                                      ---
             STORAGE =       14551.0293               STORAGE =          17.9003
       CONSTANT HEAD =           0.0000         CONSTANT HEAD =           0.0000
               WELLS =           0.0000                 WELLS =           0.0000
       RIVER LEAKAGE =      899361.1250         RIVER LEAKAGE =        2404.6309
            RECHARGE =       68432.7812              RECHARGE =         364.9565

            TOTAL IN =      982344.8750              TOTAL IN =        2787.4878

          OUT:                                     OUT:
          ----                                     ----
             STORAGE =      951827.5625               STORAGE =        2608.8076
       CONSTANT HEAD =           0.0000         CONSTANT HEAD =           0.0000
               WELLS =       29565.9512                 WELLS =         179.3290
       RIVER LEAKAGE =        1080.1012         RIVER LEAKAGE =           0.0000
            RECHARGE =           0.0000              RECHARGE =           0.0000

           TOTAL OUT =      982473.6250             TOTAL OUT =        2788.1367

            IN - OUT =        -128.7500              IN - OUT =          -0.6489

 PERCENT DISCREPANCY =          -0.01     PERCENT DISCREPANCY =          -0.02






         TIME SUMMARY AT END OF TIME STEP   22 IN STRESS PERIOD    3
                    SECONDS     MINUTES      HOURS       DAYS        YEARS
                    -----------------------------------------------------------
   TIME STEP LENGTH  86400.      1440.0      24.000      1.0000     2.73785E-03
 STRESS PERIOD TIME 1.90080E+06  31680.      528.00      22.000     6.02327E-02
         TOTAL TIME 1.06272E+07 1.77120E+05  2952.0      123.00     0.33676    
1

 SOLVING FOR HEAD 

    ------------------------------------------------
       NWT REQUIRED            3 OUTER ITERATIONS 
       AND A TOTAL OF          3 INNER ITERATIONS.
    ------------------------------------------------

 OUTPUT CONTROL FOR STRESS PERIOD    3   TIME STEP   23
    SAVE HEAD FOR ALL LAYERS
    SAVE DRAWDOWN FOR ALL LAYERS
    SAVE BUDGET
    PRINT HEAD FOR ALL LAYERS
    PRINT BUDGET
1
              HEAD IN LAYER   1 AT END OF TIME STEP  23 IN STRESS PERIOD    3
  ---------------------------------------------------------------------------

            1           2           3           4           5           6           7           8           9          10
           11          12          13          14          15          16          17          18          19          20
 ........................................................................................................................
   1    0.000       0.000       0.000       0.000       0.000       7.220       7.210       7.235       7.250       7.261    
        7.274       7.332       7.555       7.814       7.556       7.339       7.303       7.308       0.000       0.000    
   2    0.000       0.000       0.000       0.000       7.260       7.272       7.237       7.295       7.301       7.307    
        7.316       7.359       7.535       7.815       7.517       7.314       7.297       7.310       0.000       0.000    
   3    0.000       0.000       0.000       0.000       7.364       7.469       7.506       7.503       7.478       7.474    
        7.476       7.488       7.551       7.818       7.461       7.249       7.291       7.317       0.000       0.000    
   4    0.000       0.000       0.000       7.529       7.583       7.814       7.811       7.813       7.816       7.815    
        7.815       7.810       7.690       7.821       7.465       7.317       7.318       7.338       0.000       0.000    
   5    0.000       0.000       7.812       7.803       7.822       7.812       7.617       7.534       7.499       7.506    
        7.579       7.813       7.821       7.803       7.454       7.345       7.346       7.368       7.392       0.000    
   6    0.000       7.821       7.823       7.819       7.763       7.544       7.409       7.358       7.339       7.340    
        7.381       7.475       7.496       7.476       7.372       7.349       7.368       7.388       7.397       0.000    
   7    0.000       7.500       7.503       7.495       7.457       7.377       7.329       7.310       7.295       7.278    
        7.308       7.345       7.358       7.352       7.325       7.353       7.384       7.404       0.000       0.000    
   8    0.000       7.354       7.357       7.358       7.349       7.331       7.320       7.310       7.286       7.221    
        7.291       7.321       7.331       7.322       7.270       7.356       7.400       7.425       0.000       0.000    
   9    0.000       0.000       7.330       7.332       7.333       7.332       7.329       7.324       7.311       7.293    
        7.315       7.331       7.341       7.344       7.344       7.384       7.420       7.451       7.484       7.501    
  10    0.000       0.000       7.332       7.334       7.337       7.338       7.337       7.333       7.326       7.321    
        7.330       7.342       7.351       7.360       7.372       7.400       7.431       7.461       7.487       7.501    

 HEAD WILL BE SAVED ON UNIT   51 AT END OF TIME STEP   23, STRESS PERIOD    3

 DRAWDOWN WILL BE SAVED ON UNIT   52 AT END OF TIME STEP   23, STRESS PERIOD    3
1
  VOLUMETRIC BUDGET FOR ENTIRE MODEL AT END OF TIME STEP   23, STRESS PERIOD   3
  ------------------------------------------------------------------------------

     CUMULATIVE VOLUMES      L**3       RATES FOR THIS TIME STEP      L**3/T
     ------------------                 ------------------------

           IN:                                      IN:
           ---                                      ---
             STORAGE =       14566.9902               STORAGE =          15.9606
       CONSTANT HEAD =           0.0000         CONSTANT HEAD =           0.0000
               WELLS =           0.0000                 WELLS =           0.0000
       RIVER LEAKAGE =      901759.4375         RIVER LEAKAGE =        2398.2959
            RECHARGE =       68797.7344              RECHARGE =         364.9565

            TOTAL IN =      985124.1875              TOTAL IN =        2779.2131

          OUT:                                     OUT:
          ----                                     ----
             STORAGE =      954428.1250               STORAGE =        2600.5312
       CONSTANT HEAD =           0.0000         CONSTANT HEAD =           0.0000
               WELLS =       29745.2793                 WELLS =         179.3290
       RIVER LEAKAGE =        1080.1012         RIVER LEAKAGE =           0.0000
            RECHARGE =           0.0000              RECHARGE =           0.0000

           TOTAL OUT =      985253.5000             TOTAL OUT =        2779.8604

            IN - OUT =        -129.3125              IN - OUT =          -0.6472

 PERCENT DISCREPANCY =          -0.01     PERCENT DISCREPANCY =          -0.02






         TIME SUMMARY AT END OF TIME STEP   23 IN STRESS PERIOD    3
                    SECONDS     MINUTES      HOURS       DAYS        YEARS
                    -----------------------------------------------------------
   TIME STEP LENGTH  86400.      1440.0      24.000      1.0000     2.73785E-03
 STRESS PERIOD TIME 1.98720E+06  33120.      552.00      23.000     6.29706E-02
         TOTAL TIME 1.07136E+07 1.78560E+05  2976.0      124.00     0.33949    
1

 SOLVING FOR HEAD 

    ------------------------------------------------
       NWT REQUIRED            3 OUTER ITERATIONS 
       AND A TOTAL OF          3 INNER ITERATIONS.
    ------------------------------------------------

 OUTPUT CONTROL FOR STRESS PERIOD    3   TIME STEP   24
    SAVE HEAD FOR ALL LAYERS
    SAVE DRAWDOWN FOR ALL LAYERS
    SAVE BUDGET
    PRINT HEAD FOR ALL LAYERS
    PRINT BUDGET
1
              HEAD IN LAYER   1 AT END OF TIME STEP  24 IN STRESS PERIOD    3
  ---------------------------------------------------------------------------

            1           2           3           4           5           6           7           8           9          10
           11          12          13          14          15          16          17          18          19          20
 ........................................................................................................................
   1    0.000       0.000       0.000       0.000       0.000       7.220       7.211       7.235       7.251       7.261    
        7.275       7.333       7.556       7.814       7.557       7.340       7.303       7.308       0.000       0.000    
   2    0.000       0.000       0.000       0.000       7.261       7.273       7.239       7.296       7.302       7.308    
        7.317       7.360       7.536       7.815       7.518       7.315       7.297       7.310       0.000       0.000    
   3    0.000       0.000       0.000       0.000       7.366       7.470       7.507       7.504       7.479       7.475    
        7.477       7.490       7.553       7.818       7.462       7.250       7.291       7.317       0.000       0.000    
   4    0.000       0.000       0.000       7.531       7.584       7.814       7.811       7.813       7.816       7.815    
        7.815       7.810       7.691       7.821       7.466       7.317       7.318       7.338       0.000       0.000    
   5    0.000       0.000       7.812       7.803       7.822       7.812       7.618       7.535       7.500       7.508    
        7.580       7.813       7.821       7.803       7.455       7.346       7.347       7.368       7.392       0.000    
   6    0.000       7.821       7.823       7.819       7.763       7.545       7.410       7.358       7.340       7.341    
        7.382       7.476       7.497       7.477       7.373       7.349       7.368       7.388       7.397       0.000    
   7    0.000       7.501       7.504       7.496       7.458       7.378       7.330       7.310       7.295       7.279    
        7.308       7.345       7.358       7.352       7.325       7.353       7.384       7.404       0.000       0.000    
   8    0.000       7.355       7.358       7.359       7.349       7.331       7.320       7.310       7.286       7.221    
        7.291       7.321       7.331       7.322       7.270       7.356       7.400       7.425       0.000       0.000    
   9    0.000       0.000       7.330       7.333       7.333       7.332       7.329       7.324       7.311       7.293    
        7.315       7.331       7.341       7.344       7.344       7.384       7.420       7.451       7.484       7.501    
  10    0.000       0.000       7.332       7.334       7.337       7.338       7.337       7.333       7.326       7.321    
        7.330       7.342       7.351       7.360       7.372       7.400       7.431       7.461       7.487       7.501    

 HEAD WILL BE SAVED ON UNIT   51 AT END OF TIME STEP   24, STRESS PERIOD    3

 DRAWDOWN WILL BE SAVED ON UNIT   52 AT END OF TIME STEP   24, STRESS PERIOD    3
1
  VOLUMETRIC BUDGET FOR ENTIRE MODEL AT END OF TIME STEP   24, STRESS PERIOD   3
  ------------------------------------------------------------------------------

     CUMULATIVE VOLUMES      L**3       RATES FOR THIS TIME STEP      L**3/T
     ------------------                 ------------------------

           IN:                                      IN:
           ---                                      ---
             STORAGE =       14582.1797               STORAGE =          15.1894
       CONSTANT HEAD =           0.0000         CONSTANT HEAD =           0.0000
               WELLS =           0.0000                 WELLS =           0.0000
       RIVER LEAKAGE =      904150.8750         RIVER LEAKAGE =        2391.4524
            RECHARGE =       69162.6875              RECHARGE =         364.9565

            TOTAL IN =      987895.7500              TOTAL IN =        2771.5984

          OUT:                                     OUT:
          ----                                     ----
             STORAGE =      957021.0625               STORAGE =        2592.9150
       CONSTANT HEAD =           0.0000         CONSTANT HEAD =           0.0000
               WELLS =       29924.6074                 WELLS =         179.3290
       RIVER LEAKAGE =        1080.1012         RIVER LEAKAGE =           0.0000
            RECHARGE =           0.0000              RECHARGE =           0.0000

           TOTAL OUT =      988025.8125             TOTAL OUT =        2772.2441

            IN - OUT =        -130.0625              IN - OUT =          -0.6458

 PERCENT DISCREPANCY =          -0.01     PERCENT DISCREPANCY =          -0.02






         TIME SUMMARY AT END OF TIME STEP   24 IN STRESS PERIOD    3
                    SECONDS     MINUTES      HOURS       DAYS        YEARS
                    -----------------------------------------------------------
   TIME STEP LENGTH  86400.      1440.0      24.000      1.0000     2.73785E-03
 STRESS PERIOD TIME 2.07360E+06  34560.      576.00      24.000     6.57084E-02
         TOTAL TIME 1.08000E+07 1.80000E+05  3000.0      125.00     0.34223    
1

 SOLVING FOR HEAD 

    ------------------------------------------------
       NWT REQUIRED            3 OUTER ITERATIONS 
       AND A TOTAL OF          3 INNER ITERATIONS.
    ------------------------------------------------

 OUTPUT CONTROL FOR STRESS PERIOD    3   TIME STEP   25
    SAVE HEAD FOR ALL LAYERS
    SAVE DRAWDOWN FOR ALL LAYERS
    SAVE BUDGET
    PRINT HEAD FOR ALL LAYERS
    PRINT BUDGET
1
              HEAD IN LAYER   1 AT END OF TIME STEP  25 IN STRESS PERIOD    3
  ---------------------------------------------------------------------------

            1           2           3           4           5           6           7           8           9          10
           11          12          13          14          15          16          17          18          19          20
 ........................................................................................................................
   1    0.000       0.000       0.000       0.000       0.000       7.221       7.211       7.236       7.251       7.261    
        7.275       7.334       7.557       7.814       7.558       7.341       7.303       7.308       0.000       0.000    
   2    0.000       0.000       0.000       0.000       7.262       7.274       7.240       7.297       7.303       7.309    
        7.318       7.362       7.538       7.815       7.519       7.316       7.298       7.310       0.000       0.000    
   3    0.000       0.000       0.000       0.000       7.367       7.471       7.508       7.505       7.481       7.476    
        7.478       7.491       7.555       7.818       7.463       7.251       7.291       7.317       0.000       0.000    
   4    0.000       0.000       0.000       7.533       7.585       7.814       7.811       7.813       7.816       7.815    
        7.815       7.810       7.692       7.821       7.467       7.318       7.318       7.338       0.000       0.000    
   5    0.000       0.000       7.813       7.803       7.822       7.812       7.619       7.536       7.502       7.509    
        7.581       7.813       7.821       7.803       7.456       7.346       7.347       7.368       7.392       0.000    
   6    0.000       7.821       7.823       7.819       7.763       7.546       7.411       7.359       7.341       7.342    
        7.383       7.477       7.498       7.478       7.373       7.350       7.368       7.388       7.397       0.000    
   7    0.000       7.502       7.505       7.497       7.459       7.379       7.331       7.310       7.295       7.279    
        7.309       7.346       7.359       7.353       7.325       7.353       7.384       7.404       0.000       0.000    
   8    0.000       7.356       7.359       7.360       7.350       7.332       7.320       7.310       7.286       7.221    
        7.291       7.321       7.331       7.322       7.270       7.356       7.400       7.425       0.000       0.000    
   9    0.000       0.000       7.331       7.333       7.333       7.332       7.329       7.324       7.311       7.293    
        7.315       7.331       7.341       7.344       7.344       7.384       7.420       7.451       7.484       7.501    
  10    0.000       0.000       7.333       7.335       7.337       7.338       7.337       7.333       7.326       7.321    
        7.330       7.342       7.351       7.360       7.372       7.400       7.431       7.461       7.487       7.501    

 HEAD WILL BE SAVED ON UNIT   51 AT END OF TIME STEP   25, STRESS PERIOD    3

 DRAWDOWN WILL BE SAVED ON UNIT   52 AT END OF TIME STEP   25, STRESS PERIOD    3
1
  VOLUMETRIC BUDGET FOR ENTIRE MODEL AT END OF TIME STEP   25, STRESS PERIOD   3
  ------------------------------------------------------------------------------

     CUMULATIVE VOLUMES      L**3       RATES FOR THIS TIME STEP      L**3/T
     ------------------                 ------------------------

           IN:                                      IN:
           ---                                      ---
             STORAGE =       14596.7432               STORAGE =          14.5634
       CONSTANT HEAD =           0.0000         CONSTANT HEAD =           0.0000
               WELLS =           0.0000                 WELLS =           0.0000
       RIVER LEAKAGE =      906535.1250         RIVER LEAKAGE =        2384.2231
            RECHARGE =       69527.6406              RECHARGE =         364.9565

            TOTAL IN =      990659.5000              TOTAL IN =        2763.7432

          OUT:                                     OUT:
          ----                                     ----
             STORAGE =      959606.1250               STORAGE =        2585.0581
       CONSTANT HEAD =           0.0000         CONSTANT HEAD =           0.0000
               WELLS =       30103.9355                 WELLS =         179.3290
       RIVER LEAKAGE =        1080.1012         RIVER LEAKAGE =           0.0000
            RECHARGE =           0.0000              RECHARGE =           0.0000

           TOTAL OUT =      990790.1875             TOTAL OUT =        2764.3872

            IN - OUT =        -130.6875              IN - OUT =          -0.6440

 PERCENT DISCREPANCY =          -0.01     PERCENT DISCREPANCY =          -0.02






         TIME SUMMARY AT END OF TIME STEP   25 IN STRESS PERIOD    3
                    SECONDS     MINUTES      HOURS       DAYS        YEARS
                    -----------------------------------------------------------
   TIME STEP LENGTH  86400.      1440.0      24.000      1.0000     2.73785E-03
 STRESS PERIOD TIME 2.16000E+06  36000.      600.00      25.000     6.84463E-02
         TOTAL TIME 1.08864E+07 1.81440E+05  3024.0      126.00     0.34497    
1

 SOLVING FOR HEAD 

    ------------------------------------------------
       NWT REQUIRED            3 OUTER ITERATIONS 
       AND A TOTAL OF          3 INNER ITERATIONS.
    ------------------------------------------------

 OUTPUT CONTROL FOR STRESS PERIOD    3   TIME STEP   26
    SAVE HEAD FOR ALL LAYERS
    SAVE DRAWDOWN FOR ALL LAYERS
    SAVE BUDGET
    PRINT HEAD FOR ALL LAYERS
    PRINT BUDGET
1
              HEAD IN LAYER   1 AT END OF TIME STEP  26 IN STRESS PERIOD    3
  ---------------------------------------------------------------------------

            1           2           3           4           5           6           7           8           9          10
           11          12          13          14          15          16          17          18          19          20
 ........................................................................................................................
   1    0.000       0.000       0.000       0.000       0.000       7.221       7.211       7.236       7.251       7.262    
        7.276       7.335       7.558       7.814       7.560       7.342       7.303       7.308       0.000       0.000    
   2    0.000       0.000       0.000       0.000       7.263       7.274       7.241       7.297       7.303       7.310    
        7.319       7.363       7.539       7.816       7.520       7.316       7.298       7.310       0.000       0.000    
   3    0.000       0.000       0.000       0.000       7.368       7.472       7.509       7.506       7.482       7.478    
        7.479       7.493       7.556       7.818       7.464       7.251       7.291       7.317       0.000       0.000    
   4    0.000       0.000       0.000       7.535       7.586       7.814       7.811       7.813       7.816       7.815    
        7.815       7.810       7.693       7.821       7.468       7.318       7.319       7.338       0.000       0.000    
   5    0.000       0.000       7.813       7.803       7.822       7.812       7.620       7.537       7.503       7.510    
        7.582       7.813       7.821       7.803       7.457       7.347       7.347       7.368       7.392       0.000    
   6    0.000       7.821       7.823       7.819       7.763       7.547       7.412       7.360       7.342       7.342    
        7.384       7.478       7.499       7.479       7.374       7.350       7.368       7.388       7.397       0.000    
   7    0.000       7.503       7.506       7.498       7.460       7.380       7.331       7.311       7.295       7.279    
        7.309       7.346       7.360       7.353       7.326       7.353       7.384       7.404       0.000       0.000    
   8    0.000       7.357       7.360       7.360       7.350       7.332       7.320       7.310       7.287       7.222    
        7.291       7.321       7.331       7.322       7.270       7.356       7.400       7.425       0.000       0.000    
   9    0.000       0.000       7.331       7.333       7.333       7.332       7.329       7.324       7.311       7.293    
        7.315       7.331       7.341       7.344       7.344       7.384       7.420       7.451       7.484       7.501    
  10    0.000       0.000       7.333       7.335       7.337       7.338       7.337       7.333       7.326       7.321    
        7.330       7.341       7.351       7.360       7.372       7.400       7.431       7.461       7.487       7.501    

 HEAD WILL BE SAVED ON UNIT   51 AT END OF TIME STEP   26, STRESS PERIOD    3

 DRAWDOWN WILL BE SAVED ON UNIT   52 AT END OF TIME STEP   26, STRESS PERIOD    3
1
  VOLUMETRIC BUDGET FOR ENTIRE MODEL AT END OF TIME STEP   26, STRESS PERIOD   3
  ------------------------------------------------------------------------------

     CUMULATIVE VOLUMES      L**3       RATES FOR THIS TIME STEP      L**3/T
     ------------------                 ------------------------

           IN:                                      IN:
           ---                                      ---
             STORAGE =       14610.7939               STORAGE =          14.0510
       CONSTANT HEAD =           0.0000         CONSTANT HEAD =           0.0000
               WELLS =           0.0000                 WELLS =           0.0000
       RIVER LEAKAGE =      908911.8125         RIVER LEAKAGE =        2376.6665
            RECHARGE =       69892.5938              RECHARGE =         364.9565

            TOTAL IN =      993415.2500              TOTAL IN =        2755.6741

          OUT:                                     OUT:
          ----                                     ----
             STORAGE =      962183.1250               STORAGE =        2576.9873
       CONSTANT HEAD =           0.0000         CONSTANT HEAD =           0.0000
               WELLS =       30283.2637                 WELLS =         179.3290
       RIVER LEAKAGE =        1080.1012         RIVER LEAKAGE =           0.0000
            RECHARGE =           0.0000              RECHARGE =           0.0000

           TOTAL OUT =      993546.5000             TOTAL OUT =        2756.3164

            IN - OUT =        -131.2500              IN - OUT =          -0.6423

 PERCENT DISCREPANCY =          -0.01     PERCENT DISCREPANCY =          -0.02






         TIME SUMMARY AT END OF TIME STEP   26 IN STRESS PERIOD    3
                    SECONDS     MINUTES      HOURS       DAYS        YEARS
                    -----------------------------------------------------------
   TIME STEP LENGTH  86400.      1440.0      24.000      1.0000     2.73785E-03
 STRESS PERIOD TIME 2.24640E+06  37440.      624.00      26.000     7.11841E-02
         TOTAL TIME 1.09728E+07 1.82880E+05  3048.0      127.00     0.34771    
1

 SOLVING FOR HEAD 

    ------------------------------------------------
       NWT REQUIRED            3 OUTER ITERATIONS 
       AND A TOTAL OF          3 INNER ITERATIONS.
    ------------------------------------------------

 OUTPUT CONTROL FOR STRESS PERIOD    3   TIME STEP   27
    SAVE HEAD FOR ALL LAYERS
    SAVE DRAWDOWN FOR ALL LAYERS
    SAVE BUDGET
    PRINT HEAD FOR ALL LAYERS
    PRINT BUDGET
1
              HEAD IN LAYER   1 AT END OF TIME STEP  27 IN STRESS PERIOD    3
  ---------------------------------------------------------------------------

            1           2           3           4           5           6           7           8           9          10
           11          12          13          14          15          16          17          18          19          20
 ........................................................................................................................
   1    0.000       0.000       0.000       0.000       0.000       7.221       7.212       7.236       7.252       7.262    
        7.276       7.336       7.559       7.814       7.561       7.343       7.304       7.308       0.000       0.000    
   2    0.000       0.000       0.000       0.000       7.263       7.275       7.242       7.298       7.304       7.310    
        7.320       7.364       7.541       7.816       7.522       7.317       7.298       7.310       0.000       0.000    
   3    0.000       0.000       0.000       0.000       7.370       7.473       7.510       7.507       7.483       7.479    
        7.480       7.494       7.558       7.818       7.465       7.252       7.292       7.317       0.000       0.000    
   4    0.000       0.000       0.000       7.537       7.587       7.814       7.811       7.813       7.816       7.815    
        7.815       7.810       7.695       7.821       7.469       7.319       7.319       7.338       0.000       0.000    
   5    0.000       0.000       7.813       7.803       7.822       7.812       7.621       7.538       7.504       7.511    
        7.583       7.813       7.821       7.803       7.458       7.347       7.347       7.368       7.392       0.000    
   6    0.000       7.821       7.823       7.819       7.763       7.548       7.414       7.361       7.343       7.343    
        7.385       7.479       7.500       7.480       7.375       7.350       7.368       7.388       7.397       0.000    
   7    0.000       7.505       7.507       7.499       7.461       7.381       7.332       7.311       7.296       7.280    
        7.309       7.347       7.360       7.354       7.326       7.353       7.384       7.404       0.000       0.000    
   8    0.000       7.358       7.360       7.361       7.351       7.332       7.320       7.310       7.287       7.222    
        7.291       7.321       7.331       7.323       7.271       7.356       7.400       7.425       0.000       0.000    
   9    0.000       0.000       7.331       7.333       7.334       7.332       7.330       7.324       7.311       7.293    
        7.315       7.331       7.341       7.344       7.344       7.384       7.420       7.451       7.484       7.501    
  10    0.000       0.000       7.333       7.335       7.337       7.338       7.337       7.333       7.326       7.321    
        7.330       7.341       7.351       7.360       7.372       7.400       7.431       7.461       7.487       7.501    

 HEAD WILL BE SAVED ON UNIT   51 AT END OF TIME STEP   27, STRESS PERIOD    3

 DRAWDOWN WILL BE SAVED ON UNIT   52 AT END OF TIME STEP   27, STRESS PERIOD    3
1
  VOLUMETRIC BUDGET FOR ENTIRE MODEL AT END OF TIME STEP   27, STRESS PERIOD   3
  ------------------------------------------------------------------------------

     CUMULATIVE VOLUMES      L**3       RATES FOR THIS TIME STEP      L**3/T
     ------------------                 ------------------------

           IN:                                      IN:
           ---                                      ---
             STORAGE =       14624.6025               STORAGE =          13.8083
       CONSTANT HEAD =           0.0000         CONSTANT HEAD =           0.0000
               WELLS =           0.0000                 WELLS =           0.0000
       RIVER LEAKAGE =      911280.6875         RIVER LEAKAGE =        2368.8940
            RECHARGE =       70257.5469              RECHARGE =         364.9565

            TOTAL IN =      996162.8750              TOTAL IN =        2747.6589

          OUT:                                     OUT:
          ----                                     ----
             STORAGE =      964752.1250               STORAGE =        2568.9702
       CONSTANT HEAD =           0.0000         CONSTANT HEAD =           0.0000
               WELLS =       30462.5918                 WELLS =         179.3290
       RIVER LEAKAGE =        1080.1012         RIVER LEAKAGE =           0.0000
            RECHARGE =           0.0000              RECHARGE =           0.0000

           TOTAL OUT =      996294.8125             TOTAL OUT =        2748.2993

            IN - OUT =        -131.9375              IN - OUT =          -0.6404

 PERCENT DISCREPANCY =          -0.01     PERCENT DISCREPANCY =          -0.02






         TIME SUMMARY AT END OF TIME STEP   27 IN STRESS PERIOD    3
                    SECONDS     MINUTES      HOURS       DAYS        YEARS
                    -----------------------------------------------------------
   TIME STEP LENGTH  86400.      1440.0      24.000      1.0000     2.73785E-03
 STRESS PERIOD TIME 2.33280E+06  38880.      648.00      27.000     7.39220E-02
         TOTAL TIME 1.10592E+07 1.84320E+05  3072.0      128.00     0.35044    
1

 SOLVING FOR HEAD 

    ------------------------------------------------
       NWT REQUIRED            3 OUTER ITERATIONS 
       AND A TOTAL OF          3 INNER ITERATIONS.
    ------------------------------------------------

 OUTPUT CONTROL FOR STRESS PERIOD    3   TIME STEP   28
    SAVE HEAD FOR ALL LAYERS
    SAVE DRAWDOWN FOR ALL LAYERS
    SAVE BUDGET
    PRINT HEAD FOR ALL LAYERS
    PRINT BUDGET
1
              HEAD IN LAYER   1 AT END OF TIME STEP  28 IN STRESS PERIOD    3
  ---------------------------------------------------------------------------

            1           2           3           4           5           6           7           8           9          10
           11          12          13          14          15          16          17          18          19          20
 ........................................................................................................................
   1    0.000       0.000       0.000       0.000       0.000       7.222       7.212       7.237       7.252       7.262    
        7.277       7.337       7.561       7.814       7.562       7.343       7.304       7.308       0.000       0.000    
   2    0.000       0.000       0.000       0.000       7.264       7.276       7.243       7.299       7.305       7.311    
        7.321       7.366       7.542       7.816       7.523       7.318       7.298       7.310       0.000       0.000    
   3    0.000       0.000       0.000       0.000       7.371       7.474       7.511       7.508       7.484       7.480    
        7.481       7.495       7.560       7.818       7.466       7.253       7.292       7.317       0.000       0.000    
   4    0.000       0.000       0.000       7.539       7.589       7.814       7.811       7.813       7.816       7.815    
        7.815       7.810       7.696       7.821       7.470       7.319       7.319       7.338       0.000       0.000    
   5    0.000       0.000       7.813       7.803       7.822       7.812       7.622       7.540       7.505       7.512    
        7.584       7.813       7.821       7.803       7.458       7.348       7.347       7.368       7.392       0.000    
   6    0.000       7.821       7.823       7.819       7.763       7.549       7.415       7.362       7.343       7.344    
        7.386       7.480       7.501       7.480       7.375       7.350       7.368       7.388       7.397       0.000    
   7    0.000       7.506       7.508       7.500       7.462       7.382       7.332       7.311       7.296       7.280    
        7.310       7.347       7.361       7.354       7.326       7.353       7.384       7.404       0.000       0.000    
   8    0.000       7.359       7.361       7.362       7.352       7.333       7.321       7.310       7.287       7.222    
        7.291       7.321       7.332       7.323       7.271       7.356       7.400       7.425       0.000       0.000    
   9    0.000       0.000       7.331       7.333       7.334       7.332       7.330       7.324       7.311       7.293    
        7.315       7.332       7.341       7.344       7.344       7.384       7.420       7.451       7.484       7.501    
  10    0.000       0.000       7.333       7.335       7.337       7.338       7.337       7.333       7.326       7.321    
        7.330       7.341       7.351       7.360       7.372       7.400       7.431       7.461       7.487       7.501    

 HEAD WILL BE SAVED ON UNIT   51 AT END OF TIME STEP   28, STRESS PERIOD    3

 DRAWDOWN WILL BE SAVED ON UNIT   52 AT END OF TIME STEP   28, STRESS PERIOD    3
1
  VOLUMETRIC BUDGET FOR ENTIRE MODEL AT END OF TIME STEP   28, STRESS PERIOD   3
  ------------------------------------------------------------------------------

     CUMULATIVE VOLUMES      L**3       RATES FOR THIS TIME STEP      L**3/T
     ------------------                 ------------------------

           IN:                                      IN:
           ---                                      ---
             STORAGE =       14638.1689               STORAGE =          13.5664
       CONSTANT HEAD =           0.0000         CONSTANT HEAD =           0.0000
               WELLS =           0.0000                 WELLS =           0.0000
       RIVER LEAKAGE =      913641.6250         RIVER LEAKAGE =        2360.9365
            RECHARGE =       70622.5000              RECHARGE =         364.9565

            TOTAL IN =      998902.3125              TOTAL IN =        2739.4595

          OUT:                                     OUT:
          ----                                     ----
             STORAGE =      967312.8750               STORAGE =        2560.7688
       CONSTANT HEAD =           0.0000         CONSTANT HEAD =           0.0000
               WELLS =       30641.9199                 WELLS =         179.3290
       RIVER LEAKAGE =        1080.1012         RIVER LEAKAGE =           0.0000
            RECHARGE =           0.0000              RECHARGE =           0.0000

           TOTAL OUT =      999034.9375             TOTAL OUT =        2740.0979

            IN - OUT =        -132.6250              IN - OUT =          -0.6384

 PERCENT DISCREPANCY =          -0.01     PERCENT DISCREPANCY =          -0.02






         TIME SUMMARY AT END OF TIME STEP   28 IN STRESS PERIOD    3
                    SECONDS     MINUTES      HOURS       DAYS        YEARS
                    -----------------------------------------------------------
   TIME STEP LENGTH  86400.      1440.0      24.000      1.0000     2.73785E-03
 STRESS PERIOD TIME 2.41920E+06  40320.      672.00      28.000     7.66598E-02
         TOTAL TIME 1.11456E+07 1.85760E+05  3096.0      129.00     0.35318    
1

 SOLVING FOR HEAD 

    ------------------------------------------------
       NWT REQUIRED            3 OUTER ITERATIONS 
       AND A TOTAL OF          3 INNER ITERATIONS.
    ------------------------------------------------

 OUTPUT CONTROL FOR STRESS PERIOD    3   TIME STEP   29
    SAVE HEAD FOR ALL LAYERS
    SAVE DRAWDOWN FOR ALL LAYERS
    SAVE BUDGET
    PRINT HEAD FOR ALL LAYERS
    PRINT BUDGET
1
              HEAD IN LAYER   1 AT END OF TIME STEP  29 IN STRESS PERIOD    3
  ---------------------------------------------------------------------------

            1           2           3           4           5           6           7           8           9          10
           11          12          13          14          15          16          17          18          19          20
 ........................................................................................................................
   1    0.000       0.000       0.000       0.000       0.000       7.222       7.213       7.237       7.252       7.263    
        7.277       7.338       7.562       7.814       7.563       7.344       7.304       7.308       0.000       0.000    
   2    0.000       0.000       0.000       0.000       7.265       7.277       7.244       7.300       7.306       7.312    
        7.322       7.367       7.543       7.816       7.524       7.319       7.298       7.310       0.000       0.000    
   3    0.000       0.000       0.000       0.000       7.372       7.475       7.512       7.509       7.485       7.481    
        7.483       7.497       7.561       7.818       7.467       7.254       7.292       7.317       0.000       0.000    
   4    0.000       0.000       0.000       7.541       7.590       7.814       7.812       7.813       7.816       7.815    
        7.815       7.810       7.697       7.821       7.471       7.320       7.319       7.338       0.000       0.000    
   5    0.000       0.000       7.814       7.803       7.822       7.812       7.623       7.541       7.506       7.513    
        7.585       7.813       7.821       7.803       7.459       7.348       7.347       7.368       7.392       0.000    
   6    0.000       7.821       7.823       7.819       7.764       7.550       7.416       7.363       7.344       7.345    
        7.387       7.480       7.502       7.481       7.376       7.351       7.368       7.388       7.397       0.000    
   7    0.000       7.507       7.509       7.501       7.463       7.383       7.333       7.312       7.296       7.280    
        7.310       7.348       7.361       7.355       7.326       7.353       7.384       7.404       0.000       0.000    
   8    0.000       7.360       7.362       7.362       7.352       7.333       7.321       7.310       7.287       7.222    
        7.291       7.322       7.332       7.323       7.271       7.356       7.400       7.425       0.000       0.000    
   9    0.000       0.000       7.332       7.334       7.334       7.332       7.330       7.324       7.311       7.293    
        7.315       7.332       7.341       7.344       7.344       7.384       7.420       7.451       7.484       7.501    
  10    0.000       0.000       7.333       7.335       7.337       7.338       7.337       7.333       7.326       7.321    
        7.330       7.341       7.351       7.360       7.372       7.400       7.431       7.461       7.487       7.501    

 HEAD WILL BE SAVED ON UNIT   51 AT END OF TIME STEP   29, STRESS PERIOD    3

 DRAWDOWN WILL BE SAVED ON UNIT   52 AT END OF TIME STEP   29, STRESS PERIOD    3
1
  VOLUMETRIC BUDGET FOR ENTIRE MODEL AT END OF TIME STEP   29, STRESS PERIOD   3
  ------------------------------------------------------------------------------

     CUMULATIVE VOLUMES      L**3       RATES FOR THIS TIME STEP      L**3/T
     ------------------                 ------------------------

           IN:                                      IN:
           ---                                      ---
             STORAGE =       14651.5312               STORAGE =          13.3623
       CONSTANT HEAD =           0.0000         CONSTANT HEAD =           0.0000
               WELLS =           0.0000                 WELLS =           0.0000
       RIVER LEAKAGE =      915994.5000         RIVER LEAKAGE =        2352.8530
            RECHARGE =       70987.4531              RECHARGE =         364.9565

            TOTAL IN =     1001633.4375              TOTAL IN =        2731.1719

          OUT:                                     OUT:
          ----                                     ----
             STORAGE =      969865.3750               STORAGE =        2552.4792
       CONSTANT HEAD =           0.0000         CONSTANT HEAD =           0.0000
               WELLS =       30821.2480                 WELLS =         179.3290
       RIVER LEAKAGE =        1080.1012         RIVER LEAKAGE =           0.0000
            RECHARGE =           0.0000              RECHARGE =           0.0000

           TOTAL OUT =     1001766.7500             TOTAL OUT =        2731.8083

            IN - OUT =        -133.3125              IN - OUT =          -0.6365

 PERCENT DISCREPANCY =          -0.01     PERCENT DISCREPANCY =          -0.02






         TIME SUMMARY AT END OF TIME STEP   29 IN STRESS PERIOD    3
                    SECONDS     MINUTES      HOURS       DAYS        YEARS
                    -----------------------------------------------------------
   TIME STEP LENGTH  86400.      1440.0      24.000      1.0000     2.73785E-03
 STRESS PERIOD TIME 2.50560E+06  41760.      696.00      29.000     7.93977E-02
         TOTAL TIME 1.12320E+07 1.87200E+05  3120.0      130.00     0.35592    
1

 SOLVING FOR HEAD 

    ------------------------------------------------
       NWT REQUIRED            3 OUTER ITERATIONS 
       AND A TOTAL OF          3 INNER ITERATIONS.
    ------------------------------------------------

 OUTPUT CONTROL FOR STRESS PERIOD    3   TIME STEP   30
    SAVE HEAD FOR ALL LAYERS
    SAVE DRAWDOWN FOR ALL LAYERS
    SAVE BUDGET
    PRINT HEAD FOR ALL LAYERS
    PRINT BUDGET
1
              HEAD IN LAYER   1 AT END OF TIME STEP  30 IN STRESS PERIOD    3
  ---------------------------------------------------------------------------

            1           2           3           4           5           6           7           8           9          10
           11          12          13          14          15          16          17          18          19          20
 ........................................................................................................................
   1    0.000       0.000       0.000       0.000       0.000       7.222       7.213       7.238       7.253       7.263    
        7.278       7.339       7.563       7.814       7.564       7.345       7.304       7.308       0.000       0.000    
   2    0.000       0.000       0.000       0.000       7.266       7.277       7.245       7.301       7.307       7.313    
        7.323       7.368       7.545       7.816       7.525       7.319       7.299       7.310       0.000       0.000    
   3    0.000       0.000       0.000       0.000       7.373       7.476       7.513       7.510       7.486       7.482    
        7.484       7.498       7.563       7.818       7.468       7.255       7.292       7.317       0.000       0.000    
   4    0.000       0.000       0.000       7.543       7.591       7.814       7.812       7.813       7.816       7.815    
        7.815       7.810       7.698       7.821       7.472       7.321       7.319       7.338       0.000       0.000    
   5    0.000       0.000       7.814       7.803       7.822       7.812       7.624       7.542       7.507       7.515    
        7.586       7.813       7.821       7.803       7.460       7.348       7.347       7.368       7.392       0.000    
   6    0.000       7.821       7.823       7.819       7.764       7.551       7.417       7.364       7.345       7.346    
        7.388       7.481       7.503       7.482       7.377       7.351       7.368       7.388       7.397       0.000    
   7    0.000       7.508       7.510       7.502       7.464       7.384       7.334       7.312       7.297       7.281    
        7.311       7.348       7.362       7.355       7.327       7.354       7.384       7.404       0.000       0.000    
   8    0.000       7.361       7.363       7.363       7.353       7.334       7.321       7.310       7.287       7.223    
        7.292       7.322       7.332       7.323       7.272       7.356       7.400       7.425       0.000       0.000    
   9    0.000       0.000       7.332       7.334       7.334       7.332       7.330       7.324       7.311       7.293    
        7.314       7.332       7.341       7.344       7.344       7.384       7.420       7.451       7.484       7.501    
  10    0.000       0.000       7.333       7.335       7.337       7.338       7.337       7.333       7.326       7.321    
        7.330       7.341       7.351       7.360       7.372       7.400       7.431       7.461       7.487       7.501    

 HEAD WILL BE SAVED ON UNIT   51 AT END OF TIME STEP   30, STRESS PERIOD    3

 DRAWDOWN WILL BE SAVED ON UNIT   52 AT END OF TIME STEP   30, STRESS PERIOD    3
1
  VOLUMETRIC BUDGET FOR ENTIRE MODEL AT END OF TIME STEP   30, STRESS PERIOD   3
  ------------------------------------------------------------------------------

     CUMULATIVE VOLUMES      L**3       RATES FOR THIS TIME STEP      L**3/T
     ------------------                 ------------------------

           IN:                                      IN:
           ---                                      ---
             STORAGE =       14664.7012               STORAGE =          13.1700
       CONSTANT HEAD =           0.0000         CONSTANT HEAD =           0.0000
               WELLS =           0.0000                 WELLS =           0.0000
       RIVER LEAKAGE =      918339.1875         RIVER LEAKAGE =        2344.6594
            RECHARGE =       71352.4062              RECHARGE =         364.9565

            TOTAL IN =     1004356.2500              TOTAL IN =        2722.7859

          OUT:                                     OUT:
          ----                                     ----
             STORAGE =      972409.4375               STORAGE =        2544.0913
       CONSTANT HEAD =           0.0000         CONSTANT HEAD =           0.0000
               WELLS =       31000.5762                 WELLS =         179.3290
       RIVER LEAKAGE =        1080.1012         RIVER LEAKAGE =           0.0000
            RECHARGE =           0.0000              RECHARGE =           0.0000

           TOTAL OUT =     1004490.1250             TOTAL OUT =        2723.4204

            IN - OUT =        -133.8750              IN - OUT =          -0.6345

 PERCENT DISCREPANCY =          -0.01     PERCENT DISCREPANCY =          -0.02






         TIME SUMMARY AT END OF TIME STEP   30 IN STRESS PERIOD    3
                    SECONDS     MINUTES      HOURS       DAYS        YEARS
                    -----------------------------------------------------------
   TIME STEP LENGTH  86400.      1440.0      24.000      1.0000     2.73785E-03
 STRESS PERIOD TIME 2.59200E+06  43200.      720.00      30.000     8.21355E-02
         TOTAL TIME 1.13184E+07 1.88640E+05  3144.0      131.00     0.35866    
1

 SOLVING FOR HEAD 

    ------------------------------------------------
       NWT REQUIRED            3 OUTER ITERATIONS 
       AND A TOTAL OF          3 INNER ITERATIONS.
    ------------------------------------------------

 OUTPUT CONTROL FOR STRESS PERIOD    3   TIME STEP   31
    SAVE HEAD FOR ALL LAYERS
    SAVE DRAWDOWN FOR ALL LAYERS
    SAVE BUDGET
    PRINT HEAD FOR ALL LAYERS
    PRINT BUDGET
1
              HEAD IN LAYER   1 AT END OF TIME STEP  31 IN STRESS PERIOD    3
  ---------------------------------------------------------------------------

            1           2           3           4           5           6           7           8           9          10
           11          12          13          14          15          16          17          18          19          20
 ........................................................................................................................
   1    0.000       0.000       0.000       0.000       0.000       7.223       7.214       7.238       7.253       7.264    
        7.278       7.340       7.564       7.814       7.565       7.346       7.305       7.308       0.000       0.000    
   2    0.000       0.000       0.000       0.000       7.266       7.278       7.246       7.302       7.307       7.313    
        7.324       7.370       7.546       7.816       7.526       7.320       7.299       7.310       0.000       0.000    
   3    0.000       0.000       0.000       0.000       7.375       7.477       7.514       7.511       7.487       7.483    
        7.485       7.500       7.565       7.818       7.469       7.256       7.292       7.317       0.000       0.000    
   4    0.000       0.000       0.000       7.544       7.592       7.814       7.812       7.813       7.816       7.815    
        7.815       7.810       7.699       7.821       7.473       7.321       7.319       7.338       0.000       0.000    
   5    0.000       0.000       7.814       7.803       7.822       7.812       7.625       7.543       7.508       7.516    
        7.587       7.814       7.821       7.803       7.461       7.349       7.347       7.368       7.392       0.000    
   6    0.000       7.821       7.823       7.819       7.764       7.552       7.418       7.365       7.346       7.347    
        7.389       7.482       7.504       7.483       7.377       7.351       7.368       7.388       7.397       0.000    
   7    0.000       7.509       7.511       7.503       7.465       7.385       7.334       7.313       7.297       7.281    
        7.311       7.349       7.363       7.356       7.327       7.354       7.384       7.404       0.000       0.000    
   8    0.000       7.362       7.363       7.364       7.353       7.334       7.321       7.310       7.287       7.223    
        7.292       7.322       7.332       7.323       7.272       7.356       7.400       7.425       0.000       0.000    
   9    0.000       0.000       7.332       7.334       7.334       7.332       7.330       7.324       7.311       7.293    
        7.314       7.332       7.341       7.344       7.344       7.384       7.420       7.451       7.484       7.501    
  10    0.000       0.000       7.333       7.335       7.337       7.338       7.337       7.333       7.326       7.321    
        7.330       7.341       7.351       7.360       7.372       7.400       7.431       7.461       7.487       7.501    

 HEAD WILL BE SAVED ON UNIT   51 AT END OF TIME STEP   31, STRESS PERIOD    3

 DRAWDOWN WILL BE SAVED ON UNIT   52 AT END OF TIME STEP   31, STRESS PERIOD    3
1
  VOLUMETRIC BUDGET FOR ENTIRE MODEL AT END OF TIME STEP   31, STRESS PERIOD   3
  ------------------------------------------------------------------------------

     CUMULATIVE VOLUMES      L**3       RATES FOR THIS TIME STEP      L**3/T
     ------------------                 ------------------------

           IN:                                      IN:
           ---                                      ---
             STORAGE =       14677.6777               STORAGE =          12.9765
       CONSTANT HEAD =           0.0000         CONSTANT HEAD =           0.0000
               WELLS =           0.0000                 WELLS =           0.0000
       RIVER LEAKAGE =      920675.5625         RIVER LEAKAGE =        2336.4009
            RECHARGE =       71717.3594              RECHARGE =         364.9565

            TOTAL IN =     1007070.6250              TOTAL IN =        2714.3340

          OUT:                                     OUT:
          ----                                     ----
             STORAGE =      974945.0625               STORAGE =        2535.6375
       CONSTANT HEAD =           0.0000         CONSTANT HEAD =           0.0000
               WELLS =       31179.9043                 WELLS =         179.3290
       RIVER LEAKAGE =        1080.1012         RIVER LEAKAGE =           0.0000
            RECHARGE =           0.0000              RECHARGE =           0.0000

           TOTAL OUT =     1007205.0625             TOTAL OUT =        2714.9666

            IN - OUT =        -134.4375              IN - OUT =          -0.6326

 PERCENT DISCREPANCY =          -0.01     PERCENT DISCREPANCY =          -0.02






         TIME SUMMARY AT END OF TIME STEP   31 IN STRESS PERIOD    3
                    SECONDS     MINUTES      HOURS       DAYS        YEARS
                    -----------------------------------------------------------
   TIME STEP LENGTH  86400.      1440.0      24.000      1.0000     2.73785E-03
 STRESS PERIOD TIME 2.67840E+06  44640.      744.00      31.000     8.48734E-02
         TOTAL TIME 1.14048E+07 1.90080E+05  3168.0      132.00     0.36140    
1

 SOLVING FOR HEAD 

    ------------------------------------------------
       NWT REQUIRED            3 OUTER ITERATIONS 
       AND A TOTAL OF          3 INNER ITERATIONS.
    ------------------------------------------------

 OUTPUT CONTROL FOR STRESS PERIOD    3   TIME STEP   32
    SAVE HEAD FOR ALL LAYERS
    SAVE DRAWDOWN FOR ALL LAYERS
    SAVE BUDGET
    PRINT HEAD FOR ALL LAYERS
    PRINT BUDGET
1
              HEAD IN LAYER   1 AT END OF TIME STEP  32 IN STRESS PERIOD    3
  ---------------------------------------------------------------------------

            1           2           3           4           5           6           7           8           9          10
           11          12          13          14          15          16          17          18          19          20
 ........................................................................................................................
   1    0.000       0.000       0.000       0.000       0.000       7.223       7.214       7.238       7.253       7.264    
        7.279       7.341       7.565       7.815       7.566       7.347       7.305       7.309       0.000       0.000    
   2    0.000       0.000       0.000       0.000       7.267       7.279       7.247       7.303       7.308       7.314    
        7.325       7.371       7.547       7.816       7.527       7.321       7.299       7.310       0.000       0.000    
   3    0.000       0.000       0.000       0.000       7.376       7.477       7.515       7.512       7.488       7.484    
        7.486       7.501       7.566       7.818       7.470       7.257       7.293       7.317       0.000       0.000    
   4    0.000       0.000       0.000       7.546       7.593       7.814       7.812       7.813       7.816       7.816    
        7.816       7.810       7.700       7.821       7.474       7.322       7.319       7.338       0.000       0.000    
   5    0.000       0.000       7.815       7.803       7.822       7.812       7.626       7.544       7.509       7.517    
        7.588       7.814       7.821       7.803       7.462       7.349       7.347       7.368       7.392       0.000    
   6    0.000       7.821       7.823       7.819       7.764       7.553       7.420       7.366       7.347       7.348    
        7.390       7.483       7.504       7.484       7.378       7.351       7.369       7.388       7.397       0.000    
   7    0.000       7.510       7.512       7.504       7.466       7.386       7.335       7.313       7.297       7.281    
        7.312       7.350       7.363       7.356       7.327       7.354       7.384       7.404       0.000       0.000    
   8    0.000       7.363       7.364       7.364       7.354       7.334       7.321       7.310       7.287       7.223    
        7.292       7.322       7.332       7.323       7.272       7.356       7.400       7.425       0.000       0.000    
   9    0.000       0.000       7.332       7.334       7.334       7.332       7.330       7.324       7.311       7.293    
        7.314       7.332       7.341       7.344       7.344       7.384       7.420       7.451       7.484       7.501    
  10    0.000       0.000       7.333       7.335       7.337       7.338       7.337       7.333       7.326       7.321    
        7.330       7.341       7.351       7.360       7.372       7.400       7.431       7.461       7.487       7.501    

 HEAD WILL BE SAVED ON UNIT   51 AT END OF TIME STEP   32, STRESS PERIOD    3

 DRAWDOWN WILL BE SAVED ON UNIT   52 AT END OF TIME STEP   32, STRESS PERIOD    3
1
  VOLUMETRIC BUDGET FOR ENTIRE MODEL AT END OF TIME STEP   32, STRESS PERIOD   3
  ------------------------------------------------------------------------------

     CUMULATIVE VOLUMES      L**3       RATES FOR THIS TIME STEP      L**3/T
     ------------------                 ------------------------

           IN:                                      IN:
           ---                                      ---
             STORAGE =       14690.5029               STORAGE =          12.8252
       CONSTANT HEAD =           0.0000         CONSTANT HEAD =           0.0000
               WELLS =           0.0000                 WELLS =           0.0000
       RIVER LEAKAGE =      923003.6250         RIVER LEAKAGE =        2328.0903
            RECHARGE =       72082.3125              RECHARGE =         364.9565

            TOTAL IN =     1009776.4375              TOTAL IN =        2705.8721

          OUT:                                     OUT:
          ----                                     ----
             STORAGE =      977472.2500               STORAGE =        2527.1733
       CONSTANT HEAD =           0.0000         CONSTANT HEAD =           0.0000
               WELLS =       31359.2324                 WELLS =         179.3290
       RIVER LEAKAGE =        1080.1012         RIVER LEAKAGE =           0.0000
            RECHARGE =           0.0000              RECHARGE =           0.0000

           TOTAL OUT =     1009911.6250             TOTAL OUT =        2706.5024

            IN - OUT =        -135.1875              IN - OUT =          -0.6304

 PERCENT DISCREPANCY =          -0.01     PERCENT DISCREPANCY =          -0.02






         TIME SUMMARY AT END OF TIME STEP   32 IN STRESS PERIOD    3
                    SECONDS     MINUTES      HOURS       DAYS        YEARS
                    -----------------------------------------------------------
   TIME STEP LENGTH  86400.      1440.0      24.000      1.0000     2.73785E-03
 STRESS PERIOD TIME 2.76480E+06  46080.      768.00      32.000     8.76112E-02
         TOTAL TIME 1.14912E+07 1.91520E+05  3192.0      133.00     0.36413    
1

 SOLVING FOR HEAD 

    ------------------------------------------------
       NWT REQUIRED            3 OUTER ITERATIONS 
       AND A TOTAL OF          3 INNER ITERATIONS.
    ------------------------------------------------

 OUTPUT CONTROL FOR STRESS PERIOD    3   TIME STEP   33
    SAVE HEAD FOR ALL LAYERS
    SAVE DRAWDOWN FOR ALL LAYERS
    SAVE BUDGET
    PRINT HEAD FOR ALL LAYERS
    PRINT BUDGET
1
              HEAD IN LAYER   1 AT END OF TIME STEP  33 IN STRESS PERIOD    3
  ---------------------------------------------------------------------------

            1           2           3           4           5           6           7           8           9          10
           11          12          13          14          15          16          17          18          19          20
 ........................................................................................................................
   1    0.000       0.000       0.000       0.000       0.000       7.223       7.214       7.239       7.254       7.264    
        7.280       7.342       7.566       7.815       7.567       7.347       7.305       7.309       0.000       0.000    
   2    0.000       0.000       0.000       0.000       7.268       7.280       7.248       7.304       7.309       7.315    
        7.326       7.372       7.549       7.816       7.528       7.321       7.299       7.310       0.000       0.000    
   3    0.000       0.000       0.000       0.000       7.377       7.478       7.515       7.513       7.489       7.485    
        7.487       7.502       7.568       7.818       7.471       7.257       7.293       7.317       0.000       0.000    
   4    0.000       0.000       0.000       7.548       7.594       7.814       7.812       7.813       7.816       7.816    
        7.816       7.810       7.701       7.821       7.474       7.322       7.320       7.338       0.000       0.000    
   5    0.000       0.000       7.815       7.803       7.822       7.812       7.626       7.545       7.511       7.518    
        7.589       7.814       7.821       7.803       7.462       7.350       7.348       7.368       7.392       0.000    
   6    0.000       7.821       7.823       7.819       7.764       7.554       7.421       7.367       7.348       7.349    
        7.391       7.484       7.505       7.484       7.378       7.352       7.369       7.388       7.397       0.000    
   7    0.000       7.511       7.513       7.505       7.467       7.386       7.336       7.313       7.297       7.282    
        7.312       7.350       7.364       7.357       7.328       7.354       7.384       7.404       0.000       0.000    
   8    0.000       7.363       7.365       7.365       7.354       7.335       7.322       7.310       7.287       7.223    
        7.292       7.322       7.333       7.324       7.272       7.356       7.400       7.425       0.000       0.000    
   9    0.000       0.000       7.333       7.335       7.335       7.333       7.330       7.324       7.311       7.293    
        7.314       7.332       7.341       7.344       7.344       7.384       7.420       7.451       7.484       7.501    
  10    0.000       0.000       7.333       7.335       7.337       7.338       7.337       7.333       7.326       7.321    
        7.330       7.341       7.351       7.360       7.372       7.400       7.431       7.461       7.487       7.501    

 HEAD WILL BE SAVED ON UNIT   51 AT END OF TIME STEP   33, STRESS PERIOD    3

 DRAWDOWN WILL BE SAVED ON UNIT   52 AT END OF TIME STEP   33, STRESS PERIOD    3
1
  VOLUMETRIC BUDGET FOR ENTIRE MODEL AT END OF TIME STEP   33, STRESS PERIOD   3
  ------------------------------------------------------------------------------

     CUMULATIVE VOLUMES      L**3       RATES FOR THIS TIME STEP      L**3/T
     ------------------                 ------------------------

           IN:                                      IN:
           ---                                      ---
             STORAGE =       14703.1836               STORAGE =          12.6808
       CONSTANT HEAD =           0.0000         CONSTANT HEAD =           0.0000
               WELLS =           0.0000                 WELLS =           0.0000
       RIVER LEAKAGE =      925323.3750         RIVER LEAKAGE =        2319.7395
            RECHARGE =       72447.2656              RECHARGE =         364.9565

            TOTAL IN =     1012473.8125              TOTAL IN =        2697.3767

          OUT:                                     OUT:
          ----                                     ----
             STORAGE =      979990.9375               STORAGE =        2518.6760
       CONSTANT HEAD =           0.0000         CONSTANT HEAD =           0.0000
               WELLS =       31538.5605                 WELLS =         179.3290
       RIVER LEAKAGE =        1080.1012         RIVER LEAKAGE =           0.0000
            RECHARGE =           0.0000              RECHARGE =           0.0000

           TOTAL OUT =     1012609.6250             TOTAL OUT =        2698.0051

            IN - OUT =        -135.8125              IN - OUT =          -0.6284

 PERCENT DISCREPANCY =          -0.01     PERCENT DISCREPANCY =          -0.02






         TIME SUMMARY AT END OF TIME STEP   33 IN STRESS PERIOD    3
                    SECONDS     MINUTES      HOURS       DAYS        YEARS
                    -----------------------------------------------------------
   TIME STEP LENGTH  86400.      1440.0      24.000      1.0000     2.73785E-03
 STRESS PERIOD TIME 2.85120E+06  47520.      792.00      33.000     9.03491E-02
         TOTAL TIME 1.15776E+07 1.92960E+05  3216.0      134.00     0.36687    
1

 SOLVING FOR HEAD 

    ------------------------------------------------
       NWT REQUIRED            3 OUTER ITERATIONS 
       AND A TOTAL OF          3 INNER ITERATIONS.
    ------------------------------------------------

 OUTPUT CONTROL FOR STRESS PERIOD    3   TIME STEP   34
    SAVE HEAD FOR ALL LAYERS
    SAVE DRAWDOWN FOR ALL LAYERS
    SAVE BUDGET
    PRINT HEAD FOR ALL LAYERS
    PRINT BUDGET
1
              HEAD IN LAYER   1 AT END OF TIME STEP  34 IN STRESS PERIOD    3
  ---------------------------------------------------------------------------

            1           2           3           4           5           6           7           8           9          10
           11          12          13          14          15          16          17          18          19          20
 ........................................................................................................................
   1    0.000       0.000       0.000       0.000       0.000       7.224       7.215       7.239       7.254       7.265    
        7.280       7.343       7.567       7.815       7.568       7.348       7.305       7.309       0.000       0.000    
   2    0.000       0.000       0.000       0.000       7.269       7.281       7.249       7.305       7.310       7.316    
        7.326       7.373       7.550       7.816       7.529       7.322       7.300       7.310       0.000       0.000    
   3    0.000       0.000       0.000       0.000       7.378       7.479       7.516       7.514       7.490       7.486    
        7.488       7.504       7.570       7.818       7.473       7.258       7.293       7.317       0.000       0.000    
   4    0.000       0.000       0.000       7.550       7.596       7.814       7.812       7.813       7.816       7.816    
        7.816       7.810       7.703       7.821       7.475       7.323       7.320       7.338       0.000       0.000    
   5    0.000       0.000       7.815       7.803       7.822       7.812       7.627       7.546       7.512       7.519    
        7.590       7.814       7.821       7.803       7.463       7.350       7.348       7.368       7.392       0.000    
   6    0.000       7.821       7.823       7.819       7.764       7.555       7.422       7.368       7.348       7.349    
        7.392       7.485       7.506       7.485       7.379       7.352       7.369       7.388       7.397       0.000    
   7    0.000       7.512       7.514       7.506       7.468       7.387       7.336       7.314       7.298       7.282    
        7.313       7.351       7.364       7.357       7.328       7.354       7.384       7.404       0.000       0.000    
   8    0.000       7.364       7.366       7.366       7.355       7.335       7.322       7.311       7.287       7.224    
        7.292       7.323       7.333       7.324       7.273       7.356       7.400       7.425       0.000       0.000    
   9    0.000       0.000       7.333       7.335       7.335       7.333       7.330       7.324       7.311       7.293    
        7.314       7.332       7.341       7.344       7.344       7.384       7.420       7.451       7.484       7.501    
  10    0.000       0.000       7.333       7.335       7.337       7.338       7.337       7.333       7.326       7.320    
        7.330       7.341       7.351       7.360       7.372       7.400       7.431       7.461       7.487       7.501    

 HEAD WILL BE SAVED ON UNIT   51 AT END OF TIME STEP   34, STRESS PERIOD    3

 DRAWDOWN WILL BE SAVED ON UNIT   52 AT END OF TIME STEP   34, STRESS PERIOD    3
1
  VOLUMETRIC BUDGET FOR ENTIRE MODEL AT END OF TIME STEP   34, STRESS PERIOD   3
  ------------------------------------------------------------------------------

     CUMULATIVE VOLUMES      L**3       RATES FOR THIS TIME STEP      L**3/T
     ------------------                 ------------------------

           IN:                                      IN:
           ---                                      ---
             STORAGE =       14715.7305               STORAGE =          12.5465
       CONSTANT HEAD =           0.0000         CONSTANT HEAD =           0.0000
               WELLS =           0.0000                 WELLS =           0.0000
       RIVER LEAKAGE =      927634.7500         RIVER LEAKAGE =        2311.3845
            RECHARGE =       72812.2188              RECHARGE =         364.9565

            TOTAL IN =     1015162.7500              TOTAL IN =        2688.8875

          OUT:                                     OUT:
          ----                                     ----
             STORAGE =      982501.1250               STORAGE =        2510.1848
       CONSTANT HEAD =           0.0000         CONSTANT HEAD =           0.0000
               WELLS =       31717.8887                 WELLS =         179.3290
       RIVER LEAKAGE =        1080.1012         RIVER LEAKAGE =           0.0000
            RECHARGE =           0.0000              RECHARGE =           0.0000

           TOTAL OUT =     1015299.1250             TOTAL OUT =        2689.5139

            IN - OUT =        -136.3750              IN - OUT =          -0.6265

 PERCENT DISCREPANCY =          -0.01     PERCENT DISCREPANCY =          -0.02






         TIME SUMMARY AT END OF TIME STEP   34 IN STRESS PERIOD    3
                    SECONDS     MINUTES      HOURS       DAYS        YEARS
                    -----------------------------------------------------------
   TIME STEP LENGTH  86400.      1440.0      24.000      1.0000     2.73785E-03
 STRESS PERIOD TIME 2.93760E+06  48960.      816.00      34.000     9.30869E-02
         TOTAL TIME 1.16640E+07 1.94400E+05  3240.0      135.00     0.36961    
1

 SOLVING FOR HEAD 

    ------------------------------------------------
       NWT REQUIRED            3 OUTER ITERATIONS 
       AND A TOTAL OF          3 INNER ITERATIONS.
    ------------------------------------------------

 OUTPUT CONTROL FOR STRESS PERIOD    3   TIME STEP   35
    SAVE HEAD FOR ALL LAYERS
    SAVE DRAWDOWN FOR ALL LAYERS
    SAVE BUDGET
    PRINT HEAD FOR ALL LAYERS
    PRINT BUDGET
1
              HEAD IN LAYER   1 AT END OF TIME STEP  35 IN STRESS PERIOD    3
  ---------------------------------------------------------------------------

            1           2           3           4           5           6           7           8           9          10
           11          12          13          14          15          16          17          18          19          20
 ........................................................................................................................
   1    0.000       0.000       0.000       0.000       0.000       7.224       7.215       7.240       7.255       7.265    
        7.281       7.344       7.569       7.815       7.569       7.349       7.306       7.309       0.000       0.000    
   2    0.000       0.000       0.000       0.000       7.269       7.281       7.250       7.305       7.311       7.317    
        7.327       7.375       7.551       7.816       7.530       7.323       7.300       7.310       0.000       0.000    
   3    0.000       0.000       0.000       0.000       7.380       7.480       7.517       7.515       7.491       7.487    
        7.489       7.505       7.571       7.818       7.474       7.259       7.293       7.317       0.000       0.000    
   4    0.000       0.000       0.000       7.552       7.597       7.814       7.812       7.813       7.816       7.816    
        7.816       7.811       7.704       7.821       7.476       7.323       7.320       7.338       0.000       0.000    
   5    0.000       0.000       7.815       7.803       7.822       7.812       7.628       7.547       7.513       7.520    
        7.591       7.814       7.821       7.803       7.464       7.351       7.348       7.368       7.392       0.000    
   6    0.000       7.821       7.823       7.819       7.764       7.556       7.423       7.369       7.349       7.350    
        7.393       7.486       7.507       7.486       7.380       7.352       7.369       7.388       7.397       0.000    
   7    0.000       7.513       7.515       7.507       7.469       7.388       7.337       7.314       7.298       7.282    
        7.313       7.351       7.365       7.358       7.328       7.354       7.384       7.404       0.000       0.000    
   8    0.000       7.365       7.366       7.366       7.356       7.336       7.322       7.311       7.287       7.224    
        7.292       7.323       7.333       7.324       7.273       7.356       7.400       7.425       0.000       0.000    
   9    0.000       0.000       7.333       7.335       7.335       7.333       7.330       7.324       7.311       7.293    
        7.314       7.332       7.342       7.344       7.344       7.384       7.420       7.451       7.484       7.501    
  10    0.000       0.000       7.333       7.335       7.337       7.338       7.337       7.333       7.326       7.320    
        7.330       7.341       7.351       7.360       7.372       7.400       7.431       7.461       7.487       7.501    

 HEAD WILL BE SAVED ON UNIT   51 AT END OF TIME STEP   35, STRESS PERIOD    3

 DRAWDOWN WILL BE SAVED ON UNIT   52 AT END OF TIME STEP   35, STRESS PERIOD    3
1
  VOLUMETRIC BUDGET FOR ENTIRE MODEL AT END OF TIME STEP   35, STRESS PERIOD   3
  ------------------------------------------------------------------------------

     CUMULATIVE VOLUMES      L**3       RATES FOR THIS TIME STEP      L**3/T
     ------------------                 ------------------------

           IN:                                      IN:
           ---                                      ---
             STORAGE =       14728.1406               STORAGE =          12.4098
       CONSTANT HEAD =           0.0000         CONSTANT HEAD =           0.0000
               WELLS =           0.0000                 WELLS =           0.0000
       RIVER LEAKAGE =      929937.7500         RIVER LEAKAGE =        2303.0176
            RECHARGE =       73177.1719              RECHARGE =         364.9565

            TOTAL IN =     1017843.0625              TOTAL IN =        2680.3840

          OUT:                                     OUT:
          ----                                     ----
             STORAGE =      985002.8125               STORAGE =        2501.6790
       CONSTANT HEAD =           0.0000         CONSTANT HEAD =           0.0000
               WELLS =       31897.2168                 WELLS =         179.3290
       RIVER LEAKAGE =        1080.1012         RIVER LEAKAGE =           0.0000
            RECHARGE =           0.0000              RECHARGE =           0.0000

           TOTAL OUT =     1017980.1250             TOTAL OUT =        2681.0081

            IN - OUT =        -137.0625              IN - OUT =          -0.6240

 PERCENT DISCREPANCY =          -0.01     PERCENT DISCREPANCY =          -0.02






         TIME SUMMARY AT END OF TIME STEP   35 IN STRESS PERIOD    3
                    SECONDS     MINUTES      HOURS       DAYS        YEARS
                    -----------------------------------------------------------
   TIME STEP LENGTH  86400.      1440.0      24.000      1.0000     2.73785E-03
 STRESS PERIOD TIME 3.02400E+06  50400.      840.00      35.000     9.58248E-02
         TOTAL TIME 1.17504E+07 1.95840E+05  3264.0      136.00     0.37235    
1

 SOLVING FOR HEAD 

    ------------------------------------------------
       NWT REQUIRED            3 OUTER ITERATIONS 
       AND A TOTAL OF          3 INNER ITERATIONS.
    ------------------------------------------------

 OUTPUT CONTROL FOR STRESS PERIOD    3   TIME STEP   36
    SAVE HEAD FOR ALL LAYERS
    SAVE DRAWDOWN FOR ALL LAYERS
    SAVE BUDGET
    PRINT HEAD FOR ALL LAYERS
    PRINT BUDGET
1
              HEAD IN LAYER   1 AT END OF TIME STEP  36 IN STRESS PERIOD    3
  ---------------------------------------------------------------------------

            1           2           3           4           5           6           7           8           9          10
           11          12          13          14          15          16          17          18          19          20
 ........................................................................................................................
   1    0.000       0.000       0.000       0.000       0.000       7.224       7.216       7.240       7.255       7.265    
        7.281       7.345       7.570       7.815       7.570       7.350       7.306       7.309       0.000       0.000    
   2    0.000       0.000       0.000       0.000       7.270       7.282       7.252       7.306       7.311       7.317    
        7.328       7.376       7.553       7.816       7.531       7.324       7.300       7.310       0.000       0.000    
   3    0.000       0.000       0.000       0.000       7.381       7.481       7.518       7.516       7.492       7.488    
        7.490       7.506       7.573       7.818       7.475       7.260       7.293       7.317       0.000       0.000    
   4    0.000       0.000       0.000       7.553       7.598       7.814       7.812       7.813       7.816       7.816    
        7.816       7.811       7.705       7.821       7.477       7.324       7.320       7.338       0.000       0.000    
   5    0.000       0.000       7.816       7.803       7.822       7.812       7.629       7.549       7.514       7.521    
        7.592       7.814       7.821       7.803       7.465       7.351       7.348       7.368       7.392       0.000    
   6    0.000       7.821       7.823       7.819       7.764       7.557       7.424       7.370       7.350       7.351    
        7.394       7.486       7.508       7.487       7.380       7.352       7.369       7.388       7.397       0.000    
   7    0.000       7.514       7.516       7.508       7.470       7.389       7.337       7.315       7.298       7.283    
        7.313       7.352       7.366       7.358       7.329       7.354       7.384       7.404       0.000       0.000    
   8    0.000       7.366       7.367       7.367       7.356       7.336       7.322       7.311       7.287       7.224    
        7.292       7.323       7.333       7.324       7.273       7.356       7.400       7.425       0.000       0.000    
   9    0.000       0.000       7.334       7.335       7.335       7.333       7.330       7.324       7.311       7.293    
        7.314       7.332       7.342       7.344       7.344       7.384       7.420       7.451       7.484       7.501    
  10    0.000       0.000       7.333       7.335       7.337       7.338       7.337       7.333       7.326       7.320    
        7.330       7.341       7.351       7.360       7.372       7.400       7.431       7.460       7.487       7.501    

 HEAD WILL BE SAVED ON UNIT   51 AT END OF TIME STEP   36, STRESS PERIOD    3

 DRAWDOWN WILL BE SAVED ON UNIT   52 AT END OF TIME STEP   36, STRESS PERIOD    3
1
  VOLUMETRIC BUDGET FOR ENTIRE MODEL AT END OF TIME STEP   36, STRESS PERIOD   3
  ------------------------------------------------------------------------------

     CUMULATIVE VOLUMES      L**3       RATES FOR THIS TIME STEP      L**3/T
     ------------------                 ------------------------

           IN:                                      IN:
           ---                                      ---
             STORAGE =       14740.4336               STORAGE =          12.2931
       CONSTANT HEAD =           0.0000         CONSTANT HEAD =           0.0000
               WELLS =           0.0000                 WELLS =           0.0000
       RIVER LEAKAGE =      932232.4375         RIVER LEAKAGE =        2294.6592
            RECHARGE =       73542.1250              RECHARGE =         364.9565

            TOTAL IN =     1020515.0000              TOTAL IN =        2671.9089

          OUT:                                     OUT:
          ----                                     ----
             STORAGE =      987496.0000               STORAGE =        2493.2017
       CONSTANT HEAD =           0.0000         CONSTANT HEAD =           0.0000
               WELLS =       32076.5449                 WELLS =         179.3290
       RIVER LEAKAGE =        1080.1012         RIVER LEAKAGE =           0.0000
            RECHARGE =           0.0000              RECHARGE =           0.0000

           TOTAL OUT =     1020652.6875             TOTAL OUT =        2672.5308

            IN - OUT =        -137.6875              IN - OUT =          -0.6218

 PERCENT DISCREPANCY =          -0.01     PERCENT DISCREPANCY =          -0.02






         TIME SUMMARY AT END OF TIME STEP   36 IN STRESS PERIOD    3
                    SECONDS     MINUTES      HOURS       DAYS        YEARS
                    -----------------------------------------------------------
   TIME STEP LENGTH  86400.      1440.0      24.000      1.0000     2.73785E-03
 STRESS PERIOD TIME 3.11040E+06  51840.      864.00      36.000     9.85626E-02
         TOTAL TIME 1.18368E+07 1.97280E+05  3288.0      137.00     0.37509    
1

 SOLVING FOR HEAD 

    ------------------------------------------------
       NWT REQUIRED            3 OUTER ITERATIONS 
       AND A TOTAL OF          3 INNER ITERATIONS.
    ------------------------------------------------

 OUTPUT CONTROL FOR STRESS PERIOD    3   TIME STEP   37
    SAVE HEAD FOR ALL LAYERS
    SAVE DRAWDOWN FOR ALL LAYERS
    SAVE BUDGET
    PRINT HEAD FOR ALL LAYERS
    PRINT BUDGET
1
              HEAD IN LAYER   1 AT END OF TIME STEP  37 IN STRESS PERIOD    3
  ---------------------------------------------------------------------------

            1           2           3           4           5           6           7           8           9          10
           11          12          13          14          15          16          17          18          19          20
 ........................................................................................................................
   1    0.000       0.000       0.000       0.000       0.000       7.225       7.216       7.240       7.255       7.266    
        7.282       7.346       7.571       7.815       7.571       7.350       7.306       7.309       0.000       0.000    
   2    0.000       0.000       0.000       0.000       7.271       7.283       7.253       7.307       7.312       7.318    
        7.329       7.377       7.554       7.816       7.532       7.324       7.300       7.310       0.000       0.000    
   3    0.000       0.000       0.000       0.000       7.382       7.482       7.519       7.516       7.493       7.489    
        7.491       7.508       7.574       7.818       7.476       7.261       7.294       7.317       0.000       0.000    
   4    0.000       0.000       0.000       7.555       7.599       7.814       7.812       7.813       7.816       7.816    
        7.816       7.811       7.706       7.821       7.478       7.325       7.320       7.338       0.000       0.000    
   5    0.000       0.000       7.816       7.804       7.822       7.812       7.630       7.550       7.515       7.522    
        7.593       7.814       7.821       7.803       7.465       7.352       7.348       7.368       7.392       0.000    
   6    0.000       7.821       7.823       7.819       7.764       7.558       7.425       7.371       7.351       7.352    
        7.395       7.487       7.509       7.487       7.381       7.353       7.369       7.388       7.397       0.000    
   7    0.000       7.515       7.517       7.509       7.471       7.390       7.338       7.315       7.299       7.283    
        7.314       7.352       7.366       7.359       7.329       7.354       7.384       7.404       0.000       0.000    
   8    0.000       7.367       7.368       7.368       7.357       7.336       7.322       7.311       7.287       7.224    
        7.292       7.323       7.333       7.324       7.273       7.356       7.400       7.425       0.000       0.000    
   9    0.000       0.000       7.334       7.336       7.335       7.333       7.330       7.324       7.311       7.293    
        7.314       7.332       7.342       7.344       7.344       7.384       7.420       7.451       7.484       7.501    
  10    0.000       0.000       7.333       7.335       7.337       7.338       7.337       7.333       7.326       7.320    
        7.330       7.341       7.351       7.360       7.372       7.400       7.431       7.460       7.487       7.501    

 HEAD WILL BE SAVED ON UNIT   51 AT END OF TIME STEP   37, STRESS PERIOD    3

 DRAWDOWN WILL BE SAVED ON UNIT   52 AT END OF TIME STEP   37, STRESS PERIOD    3
1
  VOLUMETRIC BUDGET FOR ENTIRE MODEL AT END OF TIME STEP   37, STRESS PERIOD   3
  ------------------------------------------------------------------------------

     CUMULATIVE VOLUMES      L**3       RATES FOR THIS TIME STEP      L**3/T
     ------------------                 ------------------------

           IN:                                      IN:
           ---                                      ---
             STORAGE =       14752.6172               STORAGE =          12.1835
       CONSTANT HEAD =           0.0000         CONSTANT HEAD =           0.0000
               WELLS =           0.0000                 WELLS =           0.0000
       RIVER LEAKAGE =      934518.7500         RIVER LEAKAGE =        2286.3232
            RECHARGE =       73907.0781              RECHARGE =         364.9565

            TOTAL IN =     1023178.4375              TOTAL IN =        2663.4634

          OUT:                                     OUT:
          ----                                     ----
             STORAGE =      989980.7500               STORAGE =        2484.7544
       CONSTANT HEAD =           0.0000         CONSTANT HEAD =           0.0000
               WELLS =       32255.8730                 WELLS =         179.3290
       RIVER LEAKAGE =        1080.1012         RIVER LEAKAGE =           0.0000
            RECHARGE =           0.0000              RECHARGE =           0.0000

           TOTAL OUT =     1023316.7500             TOTAL OUT =        2664.0835

            IN - OUT =        -138.3125              IN - OUT =          -0.6201

 PERCENT DISCREPANCY =          -0.01     PERCENT DISCREPANCY =          -0.02






         TIME SUMMARY AT END OF TIME STEP   37 IN STRESS PERIOD    3
                    SECONDS     MINUTES      HOURS       DAYS        YEARS
                    -----------------------------------------------------------
   TIME STEP LENGTH  86400.      1440.0      24.000      1.0000     2.73785E-03
 STRESS PERIOD TIME 3.19680E+06  53280.      888.00      37.000     0.10130    
         TOTAL TIME 1.19232E+07 1.98720E+05  3312.0      138.00     0.37782    
1

 SOLVING FOR HEAD 

    ------------------------------------------------
       NWT REQUIRED            3 OUTER ITERATIONS 
       AND A TOTAL OF          3 INNER ITERATIONS.
    ------------------------------------------------

 OUTPUT CONTROL FOR STRESS PERIOD    3   TIME STEP   38
    SAVE HEAD FOR ALL LAYERS
    SAVE DRAWDOWN FOR ALL LAYERS
    SAVE BUDGET
    PRINT HEAD FOR ALL LAYERS
    PRINT BUDGET
1
              HEAD IN LAYER   1 AT END OF TIME STEP  38 IN STRESS PERIOD    3
  ---------------------------------------------------------------------------

            1           2           3           4           5           6           7           8           9          10
           11          12          13          14          15          16          17          18          19          20
 ........................................................................................................................
   1    0.000       0.000       0.000       0.000       0.000       7.225       7.217       7.241       7.256       7.266    
        7.282       7.347       7.572       7.815       7.572       7.351       7.306       7.309       0.000       0.000    
   2    0.000       0.000       0.000       0.000       7.272       7.284       7.254       7.308       7.313       7.319    
        7.330       7.378       7.555       7.816       7.533       7.325       7.300       7.310       0.000       0.000    
   3    0.000       0.000       0.000       0.000       7.383       7.483       7.520       7.517       7.494       7.490    
        7.492       7.509       7.576       7.818       7.477       7.262       7.294       7.317       0.000       0.000    
   4    0.000       0.000       0.000       7.557       7.600       7.814       7.812       7.813       7.816       7.816    
        7.816       7.811       7.707       7.821       7.479       7.325       7.320       7.338       0.000       0.000    
   5    0.000       0.000       7.816       7.804       7.822       7.812       7.631       7.551       7.516       7.523    
        7.594       7.814       7.821       7.803       7.466       7.352       7.348       7.368       7.392       0.000    
   6    0.000       7.821       7.823       7.819       7.765       7.559       7.426       7.372       7.352       7.353    
        7.396       7.488       7.510       7.488       7.382       7.353       7.369       7.388       7.397       0.000    
   7    0.000       7.516       7.517       7.510       7.472       7.391       7.339       7.315       7.299       7.283    
        7.314       7.353       7.367       7.359       7.329       7.354       7.384       7.404       0.000       0.000    
   8    0.000       7.368       7.369       7.368       7.357       7.337       7.323       7.311       7.287       7.225    
        7.293       7.323       7.334       7.324       7.274       7.356       7.400       7.425       0.000       0.000    
   9    0.000       0.000       7.334       7.336       7.336       7.333       7.330       7.324       7.311       7.293    
        7.314       7.332       7.342       7.345       7.344       7.384       7.420       7.451       7.484       7.501    
  10    0.000       0.000       7.333       7.335       7.337       7.338       7.337       7.333       7.326       7.320    
        7.330       7.341       7.351       7.360       7.372       7.400       7.431       7.460       7.487       7.501    

 HEAD WILL BE SAVED ON UNIT   51 AT END OF TIME STEP   38, STRESS PERIOD    3

 DRAWDOWN WILL BE SAVED ON UNIT   52 AT END OF TIME STEP   38, STRESS PERIOD    3
1
  VOLUMETRIC BUDGET FOR ENTIRE MODEL AT END OF TIME STEP   38, STRESS PERIOD   3
  ------------------------------------------------------------------------------

     CUMULATIVE VOLUMES      L**3       RATES FOR THIS TIME STEP      L**3/T
     ------------------                 ------------------------

           IN:                                      IN:
           ---                                      ---
             STORAGE =       14764.6885               STORAGE =          12.0715
       CONSTANT HEAD =           0.0000         CONSTANT HEAD =           0.0000
               WELLS =           0.0000                 WELLS =           0.0000
       RIVER LEAKAGE =      936796.7500         RIVER LEAKAGE =        2277.9927
            RECHARGE =       74272.0312              RECHARGE =         364.9565

            TOTAL IN =     1025833.5000              TOTAL IN =        2655.0208

          OUT:                                     OUT:
          ----                                     ----
             STORAGE =      992457.0625               STORAGE =        2476.3096
       CONSTANT HEAD =           0.0000         CONSTANT HEAD =           0.0000
               WELLS =       32435.2012                 WELLS =         179.3290
       RIVER LEAKAGE =        1080.1012         RIVER LEAKAGE =           0.0000
            RECHARGE =           0.0000              RECHARGE =           0.0000

           TOTAL OUT =     1025972.3750             TOTAL OUT =        2655.6387

            IN - OUT =        -138.8750              IN - OUT =          -0.6179

 PERCENT DISCREPANCY =          -0.01     PERCENT DISCREPANCY =          -0.02






         TIME SUMMARY AT END OF TIME STEP   38 IN STRESS PERIOD    3
                    SECONDS     MINUTES      HOURS       DAYS        YEARS
                    -----------------------------------------------------------
   TIME STEP LENGTH  86400.      1440.0      24.000      1.0000     2.73785E-03
 STRESS PERIOD TIME 3.28320E+06  54720.      912.00      38.000     0.10404    
         TOTAL TIME 1.20096E+07 2.00160E+05  3336.0      139.00     0.38056    
1

 SOLVING FOR HEAD 

    ------------------------------------------------
       NWT REQUIRED            3 OUTER ITERATIONS 
       AND A TOTAL OF          3 INNER ITERATIONS.
    ------------------------------------------------

 OUTPUT CONTROL FOR STRESS PERIOD    3   TIME STEP   39
    SAVE HEAD FOR ALL LAYERS
    SAVE DRAWDOWN FOR ALL LAYERS
    SAVE BUDGET
    PRINT HEAD FOR ALL LAYERS
    PRINT BUDGET
1
              HEAD IN LAYER   1 AT END OF TIME STEP  39 IN STRESS PERIOD    3
  ---------------------------------------------------------------------------

            1           2           3           4           5           6           7           8           9          10
           11          12          13          14          15          16          17          18          19          20
 ........................................................................................................................
   1    0.000       0.000       0.000       0.000       0.000       7.225       7.217       7.241       7.256       7.267    
        7.283       7.348       7.573       7.815       7.573       7.352       7.307       7.309       0.000       0.000    
   2    0.000       0.000       0.000       0.000       7.273       7.285       7.255       7.309       7.314       7.320    
        7.331       7.380       7.557       7.816       7.534       7.326       7.301       7.310       0.000       0.000    
   3    0.000       0.000       0.000       0.000       7.385       7.484       7.521       7.518       7.495       7.491    
        7.494       7.510       7.578       7.818       7.478       7.262       7.294       7.317       0.000       0.000    
   4    0.000       0.000       0.000       7.559       7.601       7.814       7.812       7.814       7.816       7.816    
        7.816       7.811       7.708       7.821       7.480       7.326       7.320       7.338       0.000       0.000    
   5    0.000       0.000       7.816       7.804       7.822       7.812       7.632       7.552       7.517       7.525    
        7.595       7.814       7.821       7.803       7.467       7.352       7.348       7.368       7.392       0.000    
   6    0.000       7.821       7.823       7.819       7.765       7.560       7.428       7.373       7.353       7.354    
        7.397       7.489       7.510       7.489       7.382       7.353       7.369       7.388       7.397       0.000    
   7    0.000       7.517       7.518       7.511       7.473       7.392       7.339       7.316       7.299       7.284    
        7.315       7.353       7.367       7.360       7.330       7.354       7.384       7.404       0.000       0.000    
   8    0.000       7.369       7.369       7.369       7.358       7.337       7.323       7.311       7.287       7.225    
        7.293       7.323       7.334       7.325       7.274       7.356       7.400       7.425       0.000       0.000    
   9    0.000       0.000       7.334       7.336       7.336       7.333       7.330       7.324       7.311       7.293    
        7.314       7.332       7.342       7.345       7.344       7.384       7.420       7.451       7.484       7.501    
  10    0.000       0.000       7.333       7.335       7.337       7.338       7.337       7.333       7.326       7.320    
        7.330       7.341       7.351       7.360       7.372       7.400       7.431       7.460       7.487       7.501    

 HEAD WILL BE SAVED ON UNIT   51 AT END OF TIME STEP   39, STRESS PERIOD    3

 DRAWDOWN WILL BE SAVED ON UNIT   52 AT END OF TIME STEP   39, STRESS PERIOD    3
1
  VOLUMETRIC BUDGET FOR ENTIRE MODEL AT END OF TIME STEP   39, STRESS PERIOD   3
  ------------------------------------------------------------------------------

     CUMULATIVE VOLUMES      L**3       RATES FOR THIS TIME STEP      L**3/T
     ------------------                 ------------------------

           IN:                                      IN:
           ---                                      ---
             STORAGE =       14776.6465               STORAGE =          11.9582
       CONSTANT HEAD =           0.0000         CONSTANT HEAD =           0.0000
               WELLS =           0.0000                 WELLS =           0.0000
       RIVER LEAKAGE =      939066.4375         RIVER LEAKAGE =        2269.6987
            RECHARGE =       74636.9844              RECHARGE =         364.9565

            TOTAL IN =     1028480.0625              TOTAL IN =        2646.6135

          OUT:                                     OUT:
          ----                                     ----
             STORAGE =      994924.9375               STORAGE =        2467.9001
       CONSTANT HEAD =           0.0000         CONSTANT HEAD =           0.0000
               WELLS =       32614.5293                 WELLS =         179.3290
       RIVER LEAKAGE =        1080.1012         RIVER LEAKAGE =           0.0000
            RECHARGE =           0.0000              RECHARGE =           0.0000

           TOTAL OUT =     1028619.5625             TOTAL OUT =        2647.2292

            IN - OUT =        -139.5000              IN - OUT =          -0.6157

 PERCENT DISCREPANCY =          -0.01     PERCENT DISCREPANCY =          -0.02






         TIME SUMMARY AT END OF TIME STEP   39 IN STRESS PERIOD    3
                    SECONDS     MINUTES      HOURS       DAYS        YEARS
                    -----------------------------------------------------------
   TIME STEP LENGTH  86400.      1440.0      24.000      1.0000     2.73785E-03
 STRESS PERIOD TIME 3.36960E+06  56160.      936.00      39.000     0.10678    
         TOTAL TIME 1.20960E+07 2.01600E+05  3360.0      140.00     0.38330    
1

 SOLVING FOR HEAD 

    ------------------------------------------------
       NWT REQUIRED            3 OUTER ITERATIONS 
       AND A TOTAL OF          3 INNER ITERATIONS.
    ------------------------------------------------

 OUTPUT CONTROL FOR STRESS PERIOD    3   TIME STEP   40
    SAVE HEAD FOR ALL LAYERS
    SAVE DRAWDOWN FOR ALL LAYERS
    SAVE BUDGET
    PRINT HEAD FOR ALL LAYERS
    PRINT BUDGET
1
              HEAD IN LAYER   1 AT END OF TIME STEP  40 IN STRESS PERIOD    3
  ---------------------------------------------------------------------------

            1           2           3           4           5           6           7           8           9          10
           11          12          13          14          15          16          17          18          19          20
 ........................................................................................................................
   1    0.000       0.000       0.000       0.000       0.000       7.226       7.217       7.242       7.256       7.267    
        7.284       7.349       7.574       7.815       7.574       7.353       7.307       7.309       0.000       0.000    
   2    0.000       0.000       0.000       0.000       7.273       7.285       7.256       7.310       7.315       7.320    
        7.332       7.381       7.558       7.816       7.535       7.327       7.301       7.310       0.000       0.000    
   3    0.000       0.000       0.000       0.000       7.386       7.485       7.522       7.519       7.496       7.492    
        7.495       7.511       7.579       7.818       7.479       7.263       7.294       7.317       0.000       0.000    
   4    0.000       0.000       0.000       7.560       7.602       7.814       7.812       7.814       7.817       7.816    
        7.816       7.811       7.709       7.821       7.481       7.326       7.321       7.338       0.000       0.000    
   5    0.000       0.000       7.817       7.804       7.822       7.812       7.633       7.553       7.518       7.526    
        7.595       7.814       7.821       7.803       7.468       7.353       7.348       7.368       7.392       0.000    
   6    0.000       7.821       7.823       7.819       7.765       7.561       7.429       7.374       7.353       7.355    
        7.398       7.490       7.511       7.489       7.383       7.354       7.369       7.388       7.397       0.000    
   7    0.000       7.518       7.519       7.512       7.474       7.393       7.340       7.316       7.300       7.284    
        7.315       7.354       7.368       7.360       7.330       7.354       7.384       7.404       0.000       0.000    
   8    0.000       7.370       7.370       7.370       7.358       7.337       7.323       7.311       7.287       7.225    
        7.293       7.324       7.334       7.325       7.274       7.356       7.400       7.425       0.000       0.000    
   9    0.000       0.000       7.335       7.336       7.336       7.333       7.330       7.324       7.311       7.293    
        7.314       7.332       7.342       7.345       7.344       7.384       7.420       7.451       7.484       7.501    
  10    0.000       0.000       7.334       7.335       7.337       7.338       7.337       7.333       7.326       7.320    
        7.330       7.341       7.351       7.360       7.372       7.400       7.431       7.460       7.487       7.501    

 HEAD WILL BE SAVED ON UNIT   51 AT END OF TIME STEP   40, STRESS PERIOD    3

 DRAWDOWN WILL BE SAVED ON UNIT   52 AT END OF TIME STEP   40, STRESS PERIOD    3
1
  VOLUMETRIC BUDGET FOR ENTIRE MODEL AT END OF TIME STEP   40, STRESS PERIOD   3
  ------------------------------------------------------------------------------

     CUMULATIVE VOLUMES      L**3       RATES FOR THIS TIME STEP      L**3/T
     ------------------                 ------------------------

           IN:                                      IN:
           ---                                      ---
             STORAGE =       14788.4893               STORAGE =          11.8430
       CONSTANT HEAD =           0.0000         CONSTANT HEAD =           0.0000
               WELLS =           0.0000                 WELLS =           0.0000
       RIVER LEAKAGE =      941327.8750         RIVER LEAKAGE =        2261.4363
            RECHARGE =       75001.9375              RECHARGE =         364.9565

            TOTAL IN =     1031118.3125              TOTAL IN =        2638.2358

          OUT:                                     OUT:
          ----                                     ----
             STORAGE =      997384.4375               STORAGE =        2459.5203
       CONSTANT HEAD =           0.0000         CONSTANT HEAD =           0.0000
               WELLS =       32793.8594                 WELLS =         179.3290
       RIVER LEAKAGE =        1080.1012         RIVER LEAKAGE =           0.0000
            RECHARGE =           0.0000              RECHARGE =           0.0000

           TOTAL OUT =     1031258.4375             TOTAL OUT =        2638.8494

            IN - OUT =        -140.1250              IN - OUT =          -0.6135

 PERCENT DISCREPANCY =          -0.01     PERCENT DISCREPANCY =          -0.02






         TIME SUMMARY AT END OF TIME STEP   40 IN STRESS PERIOD    3
                    SECONDS     MINUTES      HOURS       DAYS        YEARS
                    -----------------------------------------------------------
   TIME STEP LENGTH  86400.      1440.0      24.000      1.0000     2.73785E-03
 STRESS PERIOD TIME 3.45600E+06  57600.      960.00      40.000     0.10951    
         TOTAL TIME 1.21824E+07 2.03040E+05  3384.0      141.00     0.38604    
1

 SOLVING FOR HEAD 

    ------------------------------------------------
       NWT REQUIRED            3 OUTER ITERATIONS 
       AND A TOTAL OF          3 INNER ITERATIONS.
    ------------------------------------------------

 OUTPUT CONTROL FOR STRESS PERIOD    3   TIME STEP   41
    SAVE HEAD FOR ALL LAYERS
    SAVE DRAWDOWN FOR ALL LAYERS
    SAVE BUDGET
    PRINT HEAD FOR ALL LAYERS
    PRINT BUDGET
1
              HEAD IN LAYER   1 AT END OF TIME STEP  41 IN STRESS PERIOD    3
  ---------------------------------------------------------------------------

            1           2           3           4           5           6           7           8           9          10
           11          12          13          14          15          16          17          18          19          20
 ........................................................................................................................
   1    0.000       0.000       0.000       0.000       0.000       7.226       7.218       7.242       7.257       7.267    
        7.284       7.350       7.575       7.815       7.575       7.354       7.307       7.309       0.000       0.000    
   2    0.000       0.000       0.000       0.000       7.274       7.286       7.257       7.311       7.315       7.321    
        7.333       7.382       7.559       7.816       7.536       7.327       7.301       7.310       0.000       0.000    
   3    0.000       0.000       0.000       0.000       7.387       7.486       7.522       7.520       7.497       7.493    
        7.496       7.513       7.581       7.818       7.480       7.264       7.294       7.317       0.000       0.000    
   4    0.000       0.000       0.000       7.562       7.603       7.815       7.812       7.814       7.817       7.816    
        7.816       7.811       7.710       7.821       7.482       7.327       7.321       7.338       0.000       0.000    
   5    0.000       0.000       7.817       7.804       7.822       7.812       7.634       7.554       7.519       7.527    
        7.596       7.814       7.821       7.803       7.468       7.353       7.348       7.368       7.392       0.000    
   6    0.000       7.821       7.823       7.819       7.765       7.562       7.430       7.375       7.354       7.355    
        7.399       7.491       7.512       7.490       7.384       7.354       7.369       7.388       7.397       0.000    
   7    0.000       7.519       7.520       7.513       7.475       7.394       7.341       7.317       7.300       7.284    
        7.316       7.355       7.369       7.361       7.330       7.354       7.384       7.404       0.000       0.000    
   8    0.000       7.371       7.371       7.370       7.359       7.338       7.323       7.311       7.288       7.225    
        7.293       7.324       7.334       7.325       7.274       7.356       7.400       7.425       0.000       0.000    
   9    0.000       0.000       7.335       7.337       7.336       7.333       7.330       7.324       7.311       7.293    
        7.315       7.332       7.342       7.345       7.344       7.384       7.420       7.451       7.484       7.501    
  10    0.000       0.000       7.334       7.335       7.337       7.338       7.337       7.333       7.326       7.320    
        7.330       7.341       7.351       7.360       7.372       7.400       7.431       7.460       7.487       7.501    

 HEAD WILL BE SAVED ON UNIT   51 AT END OF TIME STEP   41, STRESS PERIOD    3

 DRAWDOWN WILL BE SAVED ON UNIT   52 AT END OF TIME STEP   41, STRESS PERIOD    3
1
  VOLUMETRIC BUDGET FOR ENTIRE MODEL AT END OF TIME STEP   41, STRESS PERIOD   3
  ------------------------------------------------------------------------------

     CUMULATIVE VOLUMES      L**3       RATES FOR THIS TIME STEP      L**3/T
     ------------------                 ------------------------

           IN:                                      IN:
           ---                                      ---
             STORAGE =       14800.2158               STORAGE =          11.7262
       CONSTANT HEAD =           0.0000         CONSTANT HEAD =           0.0000
               WELLS =           0.0000                 WELLS =           0.0000
       RIVER LEAKAGE =      943581.0625         RIVER LEAKAGE =        2253.2156
            RECHARGE =       75366.8906              RECHARGE =         364.9565

            TOTAL IN =     1033748.1250              TOTAL IN =        2629.8982

          OUT:                                     OUT:
          ----                                     ----
             STORAGE =      999835.6250               STORAGE =        2451.1809
       CONSTANT HEAD =           0.0000         CONSTANT HEAD =           0.0000
               WELLS =       32973.1875                 WELLS =         179.3290
       RIVER LEAKAGE =        1080.1012         RIVER LEAKAGE =           0.0000
            RECHARGE =           0.0000              RECHARGE =           0.0000

           TOTAL OUT =     1033888.9375             TOTAL OUT =        2630.5100

            IN - OUT =        -140.8125              IN - OUT =          -0.6118

 PERCENT DISCREPANCY =          -0.01     PERCENT DISCREPANCY =          -0.02






         TIME SUMMARY AT END OF TIME STEP   41 IN STRESS PERIOD    3
                    SECONDS     MINUTES      HOURS       DAYS        YEARS
                    -----------------------------------------------------------
   TIME STEP LENGTH  86400.      1440.0      24.000      1.0000     2.73785E-03
 STRESS PERIOD TIME 3.54240E+06  59040.      984.00      41.000     0.11225    
         TOTAL TIME 1.22688E+07 2.04480E+05  3408.0      142.00     0.38877    
1

 SOLVING FOR HEAD 

    ------------------------------------------------
       NWT REQUIRED            3 OUTER ITERATIONS 
       AND A TOTAL OF          3 INNER ITERATIONS.
    ------------------------------------------------

 OUTPUT CONTROL FOR STRESS PERIOD    3   TIME STEP   42
    SAVE HEAD FOR ALL LAYERS
    SAVE DRAWDOWN FOR ALL LAYERS
    SAVE BUDGET
    PRINT HEAD FOR ALL LAYERS
    PRINT BUDGET
1
              HEAD IN LAYER   1 AT END OF TIME STEP  42 IN STRESS PERIOD    3
  ---------------------------------------------------------------------------

            1           2           3           4           5           6           7           8           9          10
           11          12          13          14          15          16          17          18          19          20
 ........................................................................................................................
   1    0.000       0.000       0.000       0.000       0.000       7.227       7.218       7.242       7.257       7.268    
        7.285       7.351       7.576       7.815       7.575       7.354       7.307       7.309       0.000       0.000    
   2    0.000       0.000       0.000       0.000       7.275       7.287       7.258       7.312       7.316       7.322    
        7.334       7.384       7.560       7.816       7.537       7.328       7.301       7.310       0.000       0.000    
   3    0.000       0.000       0.000       0.000       7.388       7.487       7.523       7.521       7.498       7.494    
        7.497       7.514       7.582       7.818       7.481       7.265       7.295       7.317       0.000       0.000    
   4    0.000       0.000       0.000       7.564       7.604       7.815       7.812       7.814       7.817       7.816    
        7.816       7.811       7.711       7.821       7.483       7.327       7.321       7.338       0.000       0.000    
   5    0.000       0.000       7.817       7.804       7.822       7.812       7.635       7.555       7.520       7.528    
        7.597       7.814       7.821       7.803       7.469       7.354       7.349       7.369       7.392       0.000    
   6    0.000       7.821       7.823       7.819       7.765       7.563       7.431       7.376       7.355       7.356    
        7.400       7.491       7.513       7.491       7.384       7.354       7.369       7.388       7.397       0.000    
   7    0.000       7.520       7.521       7.513       7.475       7.394       7.341       7.317       7.300       7.285    
        7.316       7.355       7.369       7.361       7.330       7.355       7.384       7.404       0.000       0.000    
   8    0.000       7.372       7.371       7.371       7.360       7.338       7.323       7.311       7.288       7.226    
        7.293       7.324       7.334       7.325       7.275       7.356       7.400       7.425       0.000       0.000    
   9    0.000       0.000       7.335       7.337       7.336       7.334       7.330       7.324       7.311       7.293    
        7.315       7.332       7.342       7.345       7.344       7.384       7.420       7.451       7.484       7.501    
  10    0.000       0.000       7.334       7.336       7.338       7.338       7.337       7.333       7.326       7.320    
        7.330       7.341       7.351       7.360       7.372       7.400       7.431       7.460       7.487       7.501    

 HEAD WILL BE SAVED ON UNIT   51 AT END OF TIME STEP   42, STRESS PERIOD    3

 DRAWDOWN WILL BE SAVED ON UNIT   52 AT END OF TIME STEP   42, STRESS PERIOD    3
1
  VOLUMETRIC BUDGET FOR ENTIRE MODEL AT END OF TIME STEP   42, STRESS PERIOD   3
  ------------------------------------------------------------------------------

     CUMULATIVE VOLUMES      L**3       RATES FOR THIS TIME STEP      L**3/T
     ------------------                 ------------------------

           IN:                                      IN:
           ---                                      ---
             STORAGE =       14811.8232               STORAGE =          11.6078
       CONSTANT HEAD =           0.0000         CONSTANT HEAD =           0.0000
               WELLS =           0.0000                 WELLS =           0.0000
       RIVER LEAKAGE =      945826.0625         RIVER LEAKAGE =        2245.0234
            RECHARGE =       75731.8438              RECHARGE =         364.9565

            TOTAL IN =     1036369.7500              TOTAL IN =        2621.5879

          OUT:                                     OUT:
          ----                                     ----
             STORAGE =     1002278.5000               STORAGE =        2442.8684
       CONSTANT HEAD =           0.0000         CONSTANT HEAD =           0.0000
               WELLS =       33152.5156                 WELLS =         179.3290
       RIVER LEAKAGE =        1080.1012         RIVER LEAKAGE =           0.0000
            RECHARGE =           0.0000              RECHARGE =           0.0000

           TOTAL OUT =     1036511.1250             TOTAL OUT =        2622.1975

            IN - OUT =        -141.3750              IN - OUT =          -0.6096

 PERCENT DISCREPANCY =          -0.01     PERCENT DISCREPANCY =          -0.02






         TIME SUMMARY AT END OF TIME STEP   42 IN STRESS PERIOD    3
                    SECONDS     MINUTES      HOURS       DAYS        YEARS
                    -----------------------------------------------------------
   TIME STEP LENGTH  86400.      1440.0      24.000      1.0000     2.73785E-03
 STRESS PERIOD TIME 3.62880E+06  60480.      1008.0      42.000     0.11499    
         TOTAL TIME 1.23552E+07 2.05920E+05  3432.0      143.00     0.39151    
1

 SOLVING FOR HEAD 

    ------------------------------------------------
       NWT REQUIRED            3 OUTER ITERATIONS 
       AND A TOTAL OF          3 INNER ITERATIONS.
    ------------------------------------------------

 OUTPUT CONTROL FOR STRESS PERIOD    3   TIME STEP   43
    SAVE HEAD FOR ALL LAYERS
    SAVE DRAWDOWN FOR ALL LAYERS
    SAVE BUDGET
    PRINT HEAD FOR ALL LAYERS
    PRINT BUDGET
1
              HEAD IN LAYER   1 AT END OF TIME STEP  43 IN STRESS PERIOD    3
  ---------------------------------------------------------------------------

            1           2           3           4           5           6           7           8           9          10
           11          12          13          14          15          16          17          18          19          20
 ........................................................................................................................
   1    0.000       0.000       0.000       0.000       0.000       7.227       7.219       7.243       7.258       7.268    
        7.285       7.352       7.577       7.815       7.576       7.355       7.308       7.309       0.000       0.000    
   2    0.000       0.000       0.000       0.000       7.276       7.288       7.259       7.312       7.317       7.323    
        7.335       7.385       7.562       7.816       7.538       7.329       7.302       7.310       0.000       0.000    
   3    0.000       0.000       0.000       0.000       7.389       7.487       7.524       7.522       7.499       7.495    
        7.498       7.515       7.584       7.818       7.482       7.266       7.295       7.317       0.000       0.000    
   4    0.000       0.000       0.000       7.565       7.605       7.815       7.812       7.814       7.817       7.816    
        7.816       7.811       7.712       7.821       7.483       7.328       7.321       7.338       0.000       0.000    
   5    0.000       0.000       7.817       7.804       7.822       7.812       7.635       7.556       7.521       7.529    
        7.598       7.814       7.821       7.804       7.470       7.354       7.349       7.369       7.391       0.000    
   6    0.000       7.822       7.823       7.819       7.765       7.563       7.432       7.377       7.356       7.357    
        7.401       7.492       7.514       7.492       7.385       7.354       7.369       7.388       7.397       0.000    
   7    0.000       7.521       7.522       7.514       7.476       7.395       7.342       7.317       7.301       7.285    
        7.317       7.356       7.370       7.362       7.331       7.355       7.384       7.404       0.000       0.000    
   8    0.000       7.373       7.372       7.371       7.360       7.339       7.324       7.311       7.288       7.226    
        7.293       7.324       7.335       7.325       7.275       7.356       7.400       7.425       0.000       0.000    
   9    0.000       0.000       7.335       7.337       7.337       7.334       7.330       7.324       7.311       7.293    
        7.315       7.332       7.342       7.345       7.344       7.384       7.420       7.451       7.484       7.501    
  10    0.000       0.000       7.334       7.336       7.338       7.338       7.337       7.333       7.326       7.320    
        7.330       7.341       7.351       7.360       7.372       7.400       7.431       7.460       7.487       7.501    

 HEAD WILL BE SAVED ON UNIT   51 AT END OF TIME STEP   43, STRESS PERIOD    3

 DRAWDOWN WILL BE SAVED ON UNIT   52 AT END OF TIME STEP   43, STRESS PERIOD    3
1
  VOLUMETRIC BUDGET FOR ENTIRE MODEL AT END OF TIME STEP   43, STRESS PERIOD   3
  ------------------------------------------------------------------------------

     CUMULATIVE VOLUMES      L**3       RATES FOR THIS TIME STEP      L**3/T
     ------------------                 ------------------------

           IN:                                      IN:
           ---                                      ---
             STORAGE =       14823.3115               STORAGE =          11.4880
       CONSTANT HEAD =           0.0000         CONSTANT HEAD =           0.0000
               WELLS =           0.0000                 WELLS =           0.0000
       RIVER LEAKAGE =      948062.9375         RIVER LEAKAGE =        2236.8838
            RECHARGE =       76096.7969              RECHARGE =         364.9565

            TOTAL IN =     1038983.0625              TOTAL IN =        2613.3284

          OUT:                                     OUT:
          ----                                     ----
             STORAGE =     1004713.1250               STORAGE =        2434.6067
       CONSTANT HEAD =           0.0000         CONSTANT HEAD =           0.0000
               WELLS =       33331.8438                 WELLS =         179.3290
       RIVER LEAKAGE =        1080.1012         RIVER LEAKAGE =           0.0000
            RECHARGE =           0.0000              RECHARGE =           0.0000

           TOTAL OUT =     1039125.1250             TOTAL OUT =        2613.9358

            IN - OUT =        -142.0625              IN - OUT =          -0.6074

 PERCENT DISCREPANCY =          -0.01     PERCENT DISCREPANCY =          -0.02






         TIME SUMMARY AT END OF TIME STEP   43 IN STRESS PERIOD    3
                    SECONDS     MINUTES      HOURS       DAYS        YEARS
                    -----------------------------------------------------------
   TIME STEP LENGTH  86400.      1440.0      24.000      1.0000     2.73785E-03
 STRESS PERIOD TIME 3.71520E+06  61920.      1032.0      43.000     0.11773    
         TOTAL TIME 1.24416E+07 2.07360E+05  3456.0      144.00     0.39425    
1

 SOLVING FOR HEAD 

    ------------------------------------------------
       NWT REQUIRED            3 OUTER ITERATIONS 
       AND A TOTAL OF          3 INNER ITERATIONS.
    ------------------------------------------------

 OUTPUT CONTROL FOR STRESS PERIOD    3   TIME STEP   44
    SAVE HEAD FOR ALL LAYERS
    SAVE DRAWDOWN FOR ALL LAYERS
    SAVE BUDGET
    PRINT HEAD FOR ALL LAYERS
    PRINT BUDGET
1
              HEAD IN LAYER   1 AT END OF TIME STEP  44 IN STRESS PERIOD    3
  ---------------------------------------------------------------------------

            1           2           3           4           5           6           7           8           9          10
           11          12          13          14          15          16          17          18          19          20
 ........................................................................................................................
   1    0.000       0.000       0.000       0.000       0.000       7.227       7.219       7.243       7.258       7.269    
        7.286       7.354       7.578       7.815       7.577       7.356       7.308       7.309       0.000       0.000    
   2    0.000       0.000       0.000       0.000       7.276       7.288       7.260       7.313       7.318       7.324    
        7.336       7.386       7.563       7.816       7.539       7.330       7.302       7.310       0.000       0.000    
   3    0.000       0.000       0.000       0.000       7.391       7.488       7.525       7.523       7.500       7.496    
        7.499       7.517       7.585       7.818       7.483       7.266       7.295       7.317       0.000       0.000    
   4    0.000       0.000       0.000       7.567       7.606       7.815       7.812       7.814       7.817       7.816    
        7.816       7.811       7.713       7.821       7.484       7.329       7.321       7.338       0.000       0.000    
   5    0.000       0.000       7.817       7.804       7.822       7.813       7.636       7.557       7.522       7.530    
        7.599       7.814       7.821       7.804       7.471       7.355       7.349       7.369       7.391       0.000    
   6    0.000       7.822       7.823       7.819       7.765       7.564       7.433       7.378       7.357       7.358    
        7.402       7.493       7.514       7.492       7.385       7.355       7.369       7.388       7.397       0.000    
   7    0.000       7.522       7.523       7.515       7.477       7.396       7.343       7.318       7.301       7.286    
        7.317       7.356       7.370       7.362       7.331       7.355       7.384       7.404       0.000       0.000    
   8    0.000       7.374       7.373       7.372       7.361       7.339       7.324       7.312       7.288       7.226    
        7.293       7.324       7.335       7.326       7.275       7.356       7.400       7.425       0.000       0.000    
   9    0.000       0.000       7.336       7.337       7.337       7.334       7.330       7.324       7.311       7.293    
        7.315       7.332       7.342       7.345       7.344       7.384       7.420       7.451       7.484       7.501    
  10    0.000       0.000       7.334       7.336       7.338       7.338       7.337       7.333       7.326       7.320    
        7.330       7.341       7.351       7.360       7.372       7.400       7.431       7.460       7.487       7.501    

 HEAD WILL BE SAVED ON UNIT   51 AT END OF TIME STEP   44, STRESS PERIOD    3

 DRAWDOWN WILL BE SAVED ON UNIT   52 AT END OF TIME STEP   44, STRESS PERIOD    3
1
  VOLUMETRIC BUDGET FOR ENTIRE MODEL AT END OF TIME STEP   44, STRESS PERIOD   3
  ------------------------------------------------------------------------------

     CUMULATIVE VOLUMES      L**3       RATES FOR THIS TIME STEP      L**3/T
     ------------------                 ------------------------

           IN:                                      IN:
           ---                                      ---
             STORAGE =       14834.6787               STORAGE =          11.3668
       CONSTANT HEAD =           0.0000         CONSTANT HEAD =           0.0000
               WELLS =           0.0000                 WELLS =           0.0000
       RIVER LEAKAGE =      950291.7500         RIVER LEAKAGE =        2228.7913
            RECHARGE =       76461.7500              RECHARGE =         364.9565

            TOTAL IN =     1041588.1875              TOTAL IN =        2605.1147

          OUT:                                     OUT:
          ----                                     ----
             STORAGE =     1007139.5000               STORAGE =        2426.3911
       CONSTANT HEAD =           0.0000         CONSTANT HEAD =           0.0000
               WELLS =       33511.1719                 WELLS =         179.3290
       RIVER LEAKAGE =        1080.1012         RIVER LEAKAGE =           0.0000
            RECHARGE =           0.0000              RECHARGE =           0.0000

           TOTAL OUT =     1041730.8125             TOTAL OUT =        2605.7202

            IN - OUT =        -142.6250              IN - OUT =          -0.6055

 PERCENT DISCREPANCY =          -0.01     PERCENT DISCREPANCY =          -0.02






         TIME SUMMARY AT END OF TIME STEP   44 IN STRESS PERIOD    3
                    SECONDS     MINUTES      HOURS       DAYS        YEARS
                    -----------------------------------------------------------
   TIME STEP LENGTH  86400.      1440.0      24.000      1.0000     2.73785E-03
 STRESS PERIOD TIME 3.80160E+06  63360.      1056.0      44.000     0.12047    
         TOTAL TIME 1.25280E+07 2.08800E+05  3480.0      145.00     0.39699    
1

 SOLVING FOR HEAD 

    ------------------------------------------------
       NWT REQUIRED            3 OUTER ITERATIONS 
       AND A TOTAL OF          3 INNER ITERATIONS.
    ------------------------------------------------

 OUTPUT CONTROL FOR STRESS PERIOD    3   TIME STEP   45
    SAVE HEAD FOR ALL LAYERS
    SAVE DRAWDOWN FOR ALL LAYERS
    SAVE BUDGET
    PRINT HEAD FOR ALL LAYERS
    PRINT BUDGET
1
              HEAD IN LAYER   1 AT END OF TIME STEP  45 IN STRESS PERIOD    3
  ---------------------------------------------------------------------------

            1           2           3           4           5           6           7           8           9          10
           11          12          13          14          15          16          17          18          19          20
 ........................................................................................................................
   1    0.000       0.000       0.000       0.000       0.000       7.228       7.220       7.244       7.258       7.269    
        7.287       7.355       7.579       7.815       7.578       7.357       7.308       7.309       0.000       0.000    
   2    0.000       0.000       0.000       0.000       7.277       7.289       7.261       7.314       7.319       7.324    
        7.337       7.387       7.564       7.816       7.540       7.330       7.302       7.311       0.000       0.000    
   3    0.000       0.000       0.000       0.000       7.392       7.489       7.526       7.524       7.501       7.497    
        7.500       7.518       7.587       7.818       7.484       7.267       7.295       7.317       0.000       0.000    
   4    0.000       0.000       0.000       7.569       7.607       7.815       7.812       7.814       7.817       7.816    
        7.816       7.811       7.714       7.821       7.485       7.329       7.321       7.338       0.000       0.000    
   5    0.000       0.000       7.818       7.805       7.822       7.813       7.637       7.558       7.523       7.531    
        7.600       7.814       7.821       7.804       7.471       7.355       7.349       7.369       7.391       0.000    
   6    0.000       7.822       7.823       7.819       7.765       7.565       7.434       7.379       7.357       7.359    
        7.403       7.494       7.515       7.493       7.386       7.355       7.369       7.388       7.397       0.000    
   7    0.000       7.523       7.524       7.516       7.478       7.397       7.343       7.318       7.301       7.286    
        7.318       7.357       7.371       7.363       7.331       7.355       7.384       7.404       0.000       0.000    
   8    0.000       7.375       7.374       7.373       7.361       7.339       7.324       7.312       7.288       7.226    
        7.294       7.325       7.335       7.326       7.275       7.356       7.400       7.425       0.000       0.000    
   9    0.000       0.000       7.336       7.338       7.337       7.334       7.330       7.324       7.311       7.293    
        7.315       7.332       7.342       7.345       7.344       7.384       7.420       7.451       7.484       7.501    
  10    0.000       0.000       7.334       7.336       7.338       7.338       7.337       7.333       7.326       7.320    
        7.330       7.341       7.351       7.360       7.372       7.400       7.431       7.460       7.487       7.501    

 HEAD WILL BE SAVED ON UNIT   51 AT END OF TIME STEP   45, STRESS PERIOD    3

 DRAWDOWN WILL BE SAVED ON UNIT   52 AT END OF TIME STEP   45, STRESS PERIOD    3
1
  VOLUMETRIC BUDGET FOR ENTIRE MODEL AT END OF TIME STEP   45, STRESS PERIOD   3
  ------------------------------------------------------------------------------

     CUMULATIVE VOLUMES      L**3       RATES FOR THIS TIME STEP      L**3/T
     ------------------                 ------------------------

           IN:                                      IN:
           ---                                      ---
             STORAGE =       14845.9219               STORAGE =          11.2435
       CONSTANT HEAD =           0.0000         CONSTANT HEAD =           0.0000
               WELLS =           0.0000                 WELLS =           0.0000
       RIVER LEAKAGE =      952512.5000         RIVER LEAKAGE =        2220.7397
            RECHARGE =       76826.7031              RECHARGE =         364.9565

            TOTAL IN =     1044185.1250              TOTAL IN =        2596.9397

          OUT:                                     OUT:
          ----                                     ----
             STORAGE =     1009557.6875               STORAGE =        2418.2141
       CONSTANT HEAD =           0.0000         CONSTANT HEAD =           0.0000
               WELLS =       33690.5000                 WELLS =         179.3290
       RIVER LEAKAGE =        1080.1012         RIVER LEAKAGE =           0.0000
            RECHARGE =           0.0000              RECHARGE =           0.0000

           TOTAL OUT =     1044328.3125             TOTAL OUT =        2597.5432

            IN - OUT =        -143.1875              IN - OUT =          -0.6035

 PERCENT DISCREPANCY =          -0.01     PERCENT DISCREPANCY =          -0.02






         TIME SUMMARY AT END OF TIME STEP   45 IN STRESS PERIOD    3
                    SECONDS     MINUTES      HOURS       DAYS        YEARS
                    -----------------------------------------------------------
   TIME STEP LENGTH  86400.      1440.0      24.000      1.0000     2.73785E-03
 STRESS PERIOD TIME 3.88800E+06  64800.      1080.0      45.000     0.12320    
         TOTAL TIME 1.26144E+07 2.10240E+05  3504.0      146.00     0.39973    
1

 SOLVING FOR HEAD 

    ------------------------------------------------
       NWT REQUIRED            3 OUTER ITERATIONS 
       AND A TOTAL OF          3 INNER ITERATIONS.
    ------------------------------------------------

 OUTPUT CONTROL FOR STRESS PERIOD    3   TIME STEP   46
    SAVE HEAD FOR ALL LAYERS
    SAVE DRAWDOWN FOR ALL LAYERS
    SAVE BUDGET
    PRINT HEAD FOR ALL LAYERS
    PRINT BUDGET
1
              HEAD IN LAYER   1 AT END OF TIME STEP  46 IN STRESS PERIOD    3
  ---------------------------------------------------------------------------

            1           2           3           4           5           6           7           8           9          10
           11          12          13          14          15          16          17          18          19          20
 ........................................................................................................................
   1    0.000       0.000       0.000       0.000       0.000       7.228       7.220       7.244       7.259       7.270    
        7.287       7.356       7.580       7.815       7.579       7.357       7.309       7.309       0.000       0.000    
   2    0.000       0.000       0.000       0.000       7.278       7.290       7.262       7.315       7.319       7.325    
        7.337       7.389       7.565       7.816       7.541       7.331       7.302       7.311       0.000       0.000    
   3    0.000       0.000       0.000       0.000       7.393       7.490       7.527       7.524       7.502       7.498    
        7.501       7.519       7.588       7.818       7.485       7.268       7.295       7.317       0.000       0.000    
   4    0.000       0.000       0.000       7.570       7.608       7.815       7.812       7.814       7.817       7.816    
        7.816       7.811       7.715       7.821       7.486       7.330       7.322       7.338       0.000       0.000    
   5    0.000       0.000       7.818       7.805       7.822       7.813       7.638       7.559       7.524       7.532    
        7.601       7.814       7.821       7.804       7.472       7.355       7.349       7.369       7.391       0.000    
   6    0.000       7.822       7.823       7.819       7.766       7.566       7.435       7.380       7.358       7.360    
        7.404       7.495       7.516       7.494       7.387       7.355       7.369       7.388       7.397       0.000    
   7    0.000       7.524       7.525       7.517       7.479       7.398       7.344       7.319       7.302       7.286    
        7.318       7.357       7.371       7.363       7.332       7.355       7.384       7.404       0.000       0.000    
   8    0.000       7.376       7.374       7.373       7.362       7.340       7.324       7.312       7.288       7.227    
        7.294       7.325       7.335       7.326       7.276       7.356       7.400       7.425       0.000       0.000    
   9    0.000       0.000       7.336       7.338       7.337       7.334       7.330       7.324       7.311       7.293    
        7.315       7.332       7.342       7.345       7.344       7.384       7.420       7.450       7.484       7.501    
  10    0.000       0.000       7.334       7.336       7.338       7.339       7.337       7.333       7.326       7.320    
        7.330       7.341       7.351       7.360       7.372       7.400       7.431       7.460       7.487       7.501    

 HEAD WILL BE SAVED ON UNIT   51 AT END OF TIME STEP   46, STRESS PERIOD    3

 DRAWDOWN WILL BE SAVED ON UNIT   52 AT END OF TIME STEP   46, STRESS PERIOD    3
1
  VOLUMETRIC BUDGET FOR ENTIRE MODEL AT END OF TIME STEP   46, STRESS PERIOD   3
  ------------------------------------------------------------------------------

     CUMULATIVE VOLUMES      L**3       RATES FOR THIS TIME STEP      L**3/T
     ------------------                 ------------------------

           IN:                                      IN:
           ---                                      ---
             STORAGE =       14857.0410               STORAGE =          11.1189
       CONSTANT HEAD =           0.0000         CONSTANT HEAD =           0.0000
               WELLS =           0.0000                 WELLS =           0.0000
       RIVER LEAKAGE =      954725.2500         RIVER LEAKAGE =        2212.7219
            RECHARGE =       77191.6562              RECHARGE =         364.9565

            TOTAL IN =     1046774.0000              TOTAL IN =        2588.7974

          OUT:                                     OUT:
          ----                                     ----
             STORAGE =     1011967.7500               STORAGE =        2410.0696
       CONSTANT HEAD =           0.0000         CONSTANT HEAD =           0.0000
               WELLS =       33869.8281                 WELLS =         179.3290
       RIVER LEAKAGE =        1080.1012         RIVER LEAKAGE =           0.0000
            RECHARGE =           0.0000              RECHARGE =           0.0000

           TOTAL OUT =     1046917.6875             TOTAL OUT =        2589.3987

            IN - OUT =        -143.6875              IN - OUT =          -0.6013

 PERCENT DISCREPANCY =          -0.01     PERCENT DISCREPANCY =          -0.02






         TIME SUMMARY AT END OF TIME STEP   46 IN STRESS PERIOD    3
                    SECONDS     MINUTES      HOURS       DAYS        YEARS
                    -----------------------------------------------------------
   TIME STEP LENGTH  86400.      1440.0      24.000      1.0000     2.73785E-03
 STRESS PERIOD TIME 3.97440E+06  66240.      1104.0      46.000     0.12594    
         TOTAL TIME 1.27008E+07 2.11680E+05  3528.0      147.00     0.40246    
1

 SOLVING FOR HEAD 

    ------------------------------------------------
       NWT REQUIRED            3 OUTER ITERATIONS 
       AND A TOTAL OF          3 INNER ITERATIONS.
    ------------------------------------------------

 OUTPUT CONTROL FOR STRESS PERIOD    3   TIME STEP   47
    SAVE HEAD FOR ALL LAYERS
    SAVE DRAWDOWN FOR ALL LAYERS
    SAVE BUDGET
    PRINT HEAD FOR ALL LAYERS
    PRINT BUDGET
1
              HEAD IN LAYER   1 AT END OF TIME STEP  47 IN STRESS PERIOD    3
  ---------------------------------------------------------------------------

            1           2           3           4           5           6           7           8           9          10
           11          12          13          14          15          16          17          18          19          20
 ........................................................................................................................
   1    0.000       0.000       0.000       0.000       0.000       7.228       7.221       7.245       7.259       7.270    
        7.288       7.357       7.581       7.815       7.580       7.358       7.309       7.309       0.000       0.000    
   2    0.000       0.000       0.000       0.000       7.279       7.291       7.263       7.316       7.320       7.326    
        7.338       7.390       7.567       7.816       7.542       7.332       7.302       7.311       0.000       0.000    
   3    0.000       0.000       0.000       0.000       7.394       7.491       7.527       7.525       7.503       7.499    
        7.502       7.520       7.589       7.818       7.486       7.269       7.296       7.317       0.000       0.000    
   4    0.000       0.000       0.000       7.572       7.610       7.815       7.812       7.814       7.817       7.816    
        7.816       7.811       7.716       7.821       7.487       7.330       7.322       7.338       0.000       0.000    
   5    0.000       0.000       7.818       7.805       7.822       7.813       7.639       7.560       7.525       7.533    
        7.602       7.814       7.821       7.804       7.473       7.356       7.349       7.369       7.391       0.000    
   6    0.000       7.822       7.823       7.819       7.766       7.567       7.436       7.380       7.359       7.361    
        7.405       7.495       7.517       7.494       7.387       7.355       7.369       7.388       7.397       0.000    
   7    0.000       7.525       7.526       7.518       7.480       7.399       7.344       7.319       7.302       7.287    
        7.318       7.358       7.372       7.364       7.332       7.355       7.384       7.404       0.000       0.000    
   8    0.000       7.377       7.375       7.374       7.362       7.340       7.325       7.312       7.288       7.227    
        7.294       7.325       7.336       7.326       7.276       7.356       7.400       7.425       0.000       0.000    
   9    0.000       0.000       7.337       7.338       7.337       7.334       7.330       7.324       7.311       7.293    
        7.315       7.332       7.342       7.345       7.344       7.384       7.420       7.450       7.484       7.501    
  10    0.000       0.000       7.334       7.336       7.338       7.339       7.337       7.333       7.326       7.320    
        7.330       7.341       7.351       7.360       7.372       7.400       7.431       7.460       7.487       7.501    

 HEAD WILL BE SAVED ON UNIT   51 AT END OF TIME STEP   47, STRESS PERIOD    3

 DRAWDOWN WILL BE SAVED ON UNIT   52 AT END OF TIME STEP   47, STRESS PERIOD    3
1
  VOLUMETRIC BUDGET FOR ENTIRE MODEL AT END OF TIME STEP   47, STRESS PERIOD   3
  ------------------------------------------------------------------------------

     CUMULATIVE VOLUMES      L**3       RATES FOR THIS TIME STEP      L**3/T
     ------------------                 ------------------------

           IN:                                      IN:
           ---                                      ---
             STORAGE =       14868.0332               STORAGE =          10.9924
       CONSTANT HEAD =           0.0000         CONSTANT HEAD =           0.0000
               WELLS =           0.0000                 WELLS =           0.0000
       RIVER LEAKAGE =      956930.0000         RIVER LEAKAGE =        2204.7646
            RECHARGE =       77556.6094              RECHARGE =         364.9565

            TOTAL IN =     1049354.6250              TOTAL IN =        2580.7136

          OUT:                                     OUT:
          ----                                     ----
             STORAGE =     1014369.7500               STORAGE =        2401.9839
       CONSTANT HEAD =           0.0000         CONSTANT HEAD =           0.0000
               WELLS =       34049.1562                 WELLS =         179.3290
       RIVER LEAKAGE =        1080.1012         RIVER LEAKAGE =           0.0000
            RECHARGE =           0.0000              RECHARGE =           0.0000

           TOTAL OUT =     1049499.0000             TOTAL OUT =        2581.3130

            IN - OUT =        -144.3750              IN - OUT =          -0.5994

 PERCENT DISCREPANCY =          -0.01     PERCENT DISCREPANCY =          -0.02






         TIME SUMMARY AT END OF TIME STEP   47 IN STRESS PERIOD    3
                    SECONDS     MINUTES      HOURS       DAYS        YEARS
                    -----------------------------------------------------------
   TIME STEP LENGTH  86400.      1440.0      24.000      1.0000     2.73785E-03
 STRESS PERIOD TIME 4.06080E+06  67680.      1128.0      47.000     0.12868    
         TOTAL TIME 1.27872E+07 2.13120E+05  3552.0      148.00     0.40520    
1

 SOLVING FOR HEAD 

    ------------------------------------------------
       NWT REQUIRED            3 OUTER ITERATIONS 
       AND A TOTAL OF          3 INNER ITERATIONS.
    ------------------------------------------------

 OUTPUT CONTROL FOR STRESS PERIOD    3   TIME STEP   48
    SAVE HEAD FOR ALL LAYERS
    SAVE DRAWDOWN FOR ALL LAYERS
    SAVE BUDGET
    PRINT HEAD FOR ALL LAYERS
    PRINT BUDGET
1
              HEAD IN LAYER   1 AT END OF TIME STEP  48 IN STRESS PERIOD    3
  ---------------------------------------------------------------------------

            1           2           3           4           5           6           7           8           9          10
           11          12          13          14          15          16          17          18          19          20
 ........................................................................................................................
   1    0.000       0.000       0.000       0.000       0.000       7.229       7.221       7.245       7.260       7.270    
        7.288       7.358       7.582       7.815       7.581       7.359       7.309       7.309       0.000       0.000    
   2    0.000       0.000       0.000       0.000       7.280       7.292       7.264       7.317       7.321       7.327    
        7.339       7.391       7.568       7.816       7.542       7.332       7.303       7.311       0.000       0.000    
   3    0.000       0.000       0.000       0.000       7.395       7.492       7.528       7.526       7.504       7.500    
        7.503       7.522       7.591       7.818       7.487       7.270       7.296       7.317       0.000       0.000    
   4    0.000       0.000       0.000       7.574       7.611       7.815       7.812       7.814       7.817       7.816    
        7.816       7.812       7.716       7.821       7.488       7.331       7.322       7.338       0.000       0.000    
   5    0.000       0.000       7.818       7.805       7.822       7.813       7.639       7.561       7.526       7.534    
        7.603       7.814       7.821       7.804       7.473       7.356       7.349       7.369       7.391       0.000    
   6    0.000       7.822       7.823       7.819       7.766       7.568       7.438       7.381       7.360       7.361    
        7.406       7.496       7.518       7.495       7.388       7.356       7.369       7.388       7.397       0.000    
   7    0.000       7.526       7.527       7.519       7.481       7.400       7.345       7.320       7.302       7.287    
        7.319       7.358       7.373       7.364       7.332       7.355       7.384       7.404       0.000       0.000    
   8    0.000       7.377       7.376       7.375       7.363       7.341       7.325       7.312       7.288       7.227    
        7.294       7.325       7.336       7.326       7.276       7.356       7.400       7.425       0.000       0.000    
   9    0.000       0.000       7.337       7.338       7.338       7.334       7.330       7.324       7.311       7.293    
        7.315       7.332       7.342       7.345       7.344       7.384       7.420       7.450       7.484       7.501    
  10    0.000       0.000       7.334       7.336       7.338       7.339       7.337       7.333       7.326       7.320    
        7.330       7.341       7.351       7.360       7.372       7.400       7.431       7.460       7.487       7.501    

 HEAD WILL BE SAVED ON UNIT   51 AT END OF TIME STEP   48, STRESS PERIOD    3

 DRAWDOWN WILL BE SAVED ON UNIT   52 AT END OF TIME STEP   48, STRESS PERIOD    3
1
  VOLUMETRIC BUDGET FOR ENTIRE MODEL AT END OF TIME STEP   48, STRESS PERIOD   3
  ------------------------------------------------------------------------------

     CUMULATIVE VOLUMES      L**3       RATES FOR THIS TIME STEP      L**3/T
     ------------------                 ------------------------

           IN:                                      IN:
           ---                                      ---
             STORAGE =       14878.8984               STORAGE =          10.8648
       CONSTANT HEAD =           0.0000         CONSTANT HEAD =           0.0000
               WELLS =           0.0000                 WELLS =           0.0000
       RIVER LEAKAGE =      959126.8750         RIVER LEAKAGE =        2196.8599
            RECHARGE =       77921.5625              RECHARGE =         364.9565

            TOTAL IN =     1051927.2500              TOTAL IN =        2572.6812

          OUT:                                     OUT:
          ----                                     ----
             STORAGE =     1016763.6875               STORAGE =        2393.9495
       CONSTANT HEAD =           0.0000         CONSTANT HEAD =           0.0000
               WELLS =       34228.4844                 WELLS =         179.3290
       RIVER LEAKAGE =        1080.1012         RIVER LEAKAGE =           0.0000
            RECHARGE =           0.0000              RECHARGE =           0.0000

           TOTAL OUT =     1052072.2500             TOTAL OUT =        2573.2786

            IN - OUT =        -145.0000              IN - OUT =          -0.5974

 PERCENT DISCREPANCY =          -0.01     PERCENT DISCREPANCY =          -0.02






         TIME SUMMARY AT END OF TIME STEP   48 IN STRESS PERIOD    3
                    SECONDS     MINUTES      HOURS       DAYS        YEARS
                    -----------------------------------------------------------
   TIME STEP LENGTH  86400.      1440.0      24.000      1.0000     2.73785E-03
 STRESS PERIOD TIME 4.14720E+06  69120.      1152.0      48.000     0.13142    
         TOTAL TIME 1.28736E+07 2.14560E+05  3576.0      149.00     0.40794    
1

 SOLVING FOR HEAD 

    ------------------------------------------------
       NWT REQUIRED            3 OUTER ITERATIONS 
       AND A TOTAL OF          3 INNER ITERATIONS.
    ------------------------------------------------

 OUTPUT CONTROL FOR STRESS PERIOD    3   TIME STEP   49
    SAVE HEAD FOR ALL LAYERS
    SAVE DRAWDOWN FOR ALL LAYERS
    SAVE BUDGET
    PRINT HEAD FOR ALL LAYERS
    PRINT BUDGET
1
              HEAD IN LAYER   1 AT END OF TIME STEP  49 IN STRESS PERIOD    3
  ---------------------------------------------------------------------------

            1           2           3           4           5           6           7           8           9          10
           11          12          13          14          15          16          17          18          19          20
 ........................................................................................................................
   1    0.000       0.000       0.000       0.000       0.000       7.229       7.222       7.245       7.260       7.271    
        7.289       7.359       7.583       7.815       7.582       7.360       7.309       7.310       0.000       0.000    
   2    0.000       0.000       0.000       0.000       7.280       7.292       7.264       7.318       7.322       7.327    
        7.340       7.392       7.569       7.817       7.543       7.333       7.303       7.311       0.000       0.000    
   3    0.000       0.000       0.000       0.000       7.396       7.493       7.529       7.527       7.505       7.501    
        7.504       7.523       7.592       7.819       7.487       7.270       7.296       7.317       0.000       0.000    
   4    0.000       0.000       0.000       7.575       7.612       7.815       7.813       7.814       7.817       7.816    
        7.816       7.812       7.717       7.821       7.488       7.331       7.322       7.338       0.000       0.000    
   5    0.000       0.000       7.818       7.805       7.822       7.813       7.640       7.562       7.527       7.535    
        7.603       7.814       7.821       7.804       7.474       7.357       7.349       7.369       7.391       0.000    
   6    0.000       7.822       7.823       7.819       7.766       7.569       7.439       7.382       7.361       7.362    
        7.407       7.497       7.518       7.496       7.388       7.356       7.370       7.388       7.397       0.000    
   7    0.000       7.527       7.527       7.519       7.481       7.400       7.346       7.320       7.303       7.287    
        7.319       7.359       7.373       7.365       7.333       7.355       7.384       7.404       0.000       0.000    
   8    0.000       7.378       7.377       7.375       7.363       7.341       7.325       7.312       7.288       7.227    
        7.294       7.325       7.336       7.327       7.276       7.356       7.400       7.425       0.000       0.000    
   9    0.000       0.000       7.337       7.339       7.338       7.334       7.331       7.324       7.311       7.293    
        7.315       7.332       7.342       7.345       7.344       7.383       7.420       7.450       7.484       7.501    
  10    0.000       0.000       7.334       7.336       7.338       7.339       7.337       7.333       7.326       7.320    
        7.330       7.341       7.351       7.360       7.372       7.400       7.431       7.460       7.487       7.501    

 HEAD WILL BE SAVED ON UNIT   51 AT END OF TIME STEP   49, STRESS PERIOD    3

 DRAWDOWN WILL BE SAVED ON UNIT   52 AT END OF TIME STEP   49, STRESS PERIOD    3
1
  VOLUMETRIC BUDGET FOR ENTIRE MODEL AT END OF TIME STEP   49, STRESS PERIOD   3
  ------------------------------------------------------------------------------

     CUMULATIVE VOLUMES      L**3       RATES FOR THIS TIME STEP      L**3/T
     ------------------                 ------------------------

           IN:                                      IN:
           ---                                      ---
             STORAGE =       14889.6338               STORAGE =          10.7355
       CONSTANT HEAD =           0.0000         CONSTANT HEAD =           0.0000
               WELLS =           0.0000                 WELLS =           0.0000
       RIVER LEAKAGE =      961315.8750         RIVER LEAKAGE =        2189.0042
            RECHARGE =       78286.5156              RECHARGE =         364.9565

            TOTAL IN =     1054492.0000              TOTAL IN =        2564.6960

          OUT:                                     OUT:
          ----                                     ----
             STORAGE =     1019149.6250               STORAGE =        2385.9626
       CONSTANT HEAD =           0.0000         CONSTANT HEAD =           0.0000
               WELLS =       34407.8125                 WELLS =         179.3290
       RIVER LEAKAGE =        1080.1012         RIVER LEAKAGE =           0.0000
            RECHARGE =           0.0000              RECHARGE =           0.0000

           TOTAL OUT =     1054637.6250             TOTAL OUT =        2565.2917

            IN - OUT =        -145.6250              IN - OUT =          -0.5957

 PERCENT DISCREPANCY =          -0.01     PERCENT DISCREPANCY =          -0.02






         TIME SUMMARY AT END OF TIME STEP   49 IN STRESS PERIOD    3
                    SECONDS     MINUTES      HOURS       DAYS        YEARS
                    -----------------------------------------------------------
   TIME STEP LENGTH  86400.      1440.0      24.000      1.0000     2.73785E-03
 STRESS PERIOD TIME 4.23360E+06  70560.      1176.0      49.000     0.13415    
         TOTAL TIME 1.29600E+07 2.16000E+05  3600.0      150.00     0.41068    
1

 SOLVING FOR HEAD 

    ------------------------------------------------
       NWT REQUIRED            3 OUTER ITERATIONS 
       AND A TOTAL OF          3 INNER ITERATIONS.
    ------------------------------------------------

 OUTPUT CONTROL FOR STRESS PERIOD    3   TIME STEP   50
    SAVE HEAD FOR ALL LAYERS
    SAVE DRAWDOWN FOR ALL LAYERS
    SAVE BUDGET
    PRINT HEAD FOR ALL LAYERS
    PRINT BUDGET
1
              HEAD IN LAYER   1 AT END OF TIME STEP  50 IN STRESS PERIOD    3
  ---------------------------------------------------------------------------

            1           2           3           4           5           6           7           8           9          10
           11          12          13          14          15          16          17          18          19          20
 ........................................................................................................................
   1    0.000       0.000       0.000       0.000       0.000       7.230       7.222       7.246       7.260       7.271    
        7.290       7.360       7.584       7.815       7.583       7.360       7.310       7.310       0.000       0.000    
   2    0.000       0.000       0.000       0.000       7.281       7.293       7.265       7.318       7.322       7.328    
        7.341       7.393       7.570       7.817       7.544       7.334       7.303       7.311       0.000       0.000    
   3    0.000       0.000       0.000       0.000       7.398       7.494       7.530       7.528       7.506       7.501    
        7.505       7.524       7.594       7.819       7.488       7.271       7.296       7.317       0.000       0.000    
   4    0.000       0.000       0.000       7.577       7.613       7.815       7.813       7.814       7.817       7.816    
        7.816       7.812       7.718       7.821       7.489       7.332       7.322       7.338       0.000       0.000    
   5    0.000       0.000       7.819       7.805       7.822       7.813       7.641       7.563       7.528       7.536    
        7.604       7.814       7.821       7.804       7.475       7.357       7.350       7.369       7.391       0.000    
   6    0.000       7.822       7.823       7.819       7.766       7.570       7.440       7.383       7.361       7.363    
        7.407       7.498       7.519       7.496       7.389       7.356       7.370       7.388       7.397       0.000    
   7    0.000       7.527       7.528       7.520       7.482       7.401       7.346       7.320       7.303       7.288    
        7.320       7.360       7.374       7.365       7.333       7.355       7.384       7.404       0.000       0.000    
   8    0.000       7.379       7.377       7.376       7.364       7.341       7.325       7.312       7.288       7.227    
        7.294       7.326       7.336       7.327       7.277       7.356       7.400       7.425       0.000       0.000    
   9    0.000       0.000       7.337       7.339       7.338       7.335       7.331       7.324       7.311       7.293    
        7.315       7.332       7.342       7.345       7.344       7.383       7.420       7.450       7.484       7.501    
  10    0.000       0.000       7.334       7.336       7.338       7.339       7.337       7.333       7.326       7.320    
        7.330       7.341       7.351       7.360       7.372       7.400       7.431       7.460       7.487       7.501    

 HEAD WILL BE SAVED ON UNIT   51 AT END OF TIME STEP   50, STRESS PERIOD    3

 DRAWDOWN WILL BE SAVED ON UNIT   52 AT END OF TIME STEP   50, STRESS PERIOD    3
1
  VOLUMETRIC BUDGET FOR ENTIRE MODEL AT END OF TIME STEP   50, STRESS PERIOD   3
  ------------------------------------------------------------------------------

     CUMULATIVE VOLUMES      L**3       RATES FOR THIS TIME STEP      L**3/T
     ------------------                 ------------------------

           IN:                                      IN:
           ---                                      ---
             STORAGE =       14900.2383               STORAGE =          10.6047
       CONSTANT HEAD =           0.0000         CONSTANT HEAD =           0.0000
               WELLS =           0.0000                 WELLS =           0.0000
       RIVER LEAKAGE =      963497.0625         RIVER LEAKAGE =        2181.1963
            RECHARGE =       78651.4688              RECHARGE =         364.9565

            TOTAL IN =     1057048.7500              TOTAL IN =        2556.7576

          OUT:                                     OUT:
          ----                                     ----
             STORAGE =     1021527.6250               STORAGE =        2378.0220
       CONSTANT HEAD =           0.0000         CONSTANT HEAD =           0.0000
               WELLS =       34587.1406                 WELLS =         179.3290
       RIVER LEAKAGE =        1080.1012         RIVER LEAKAGE =           0.0000
            RECHARGE =           0.0000              RECHARGE =           0.0000

           TOTAL OUT =     1057194.8750             TOTAL OUT =        2557.3511

            IN - OUT =        -146.1250              IN - OUT =          -0.5935

 PERCENT DISCREPANCY =          -0.01     PERCENT DISCREPANCY =          -0.02






         TIME SUMMARY AT END OF TIME STEP   50 IN STRESS PERIOD    3
                    SECONDS     MINUTES      HOURS       DAYS        YEARS
                    -----------------------------------------------------------
   TIME STEP LENGTH  86400.      1440.0      24.000      1.0000     2.73785E-03
 STRESS PERIOD TIME 4.32000E+06  72000.      1200.0      50.000     0.13689    
         TOTAL TIME 1.30464E+07 2.17440E+05  3624.0      151.00     0.41342    
1

 SOLVING FOR HEAD 

    ------------------------------------------------
       NWT REQUIRED            3 OUTER ITERATIONS 
       AND A TOTAL OF          3 INNER ITERATIONS.
    ------------------------------------------------

 OUTPUT CONTROL FOR STRESS PERIOD    3   TIME STEP   51
    SAVE HEAD FOR ALL LAYERS
    SAVE DRAWDOWN FOR ALL LAYERS
    SAVE BUDGET
    PRINT HEAD FOR ALL LAYERS
    PRINT BUDGET
1
              HEAD IN LAYER   1 AT END OF TIME STEP  51 IN STRESS PERIOD    3
  ---------------------------------------------------------------------------

            1           2           3           4           5           6           7           8           9          10
           11          12          13          14          15          16          17          18          19          20
 ........................................................................................................................
   1    0.000       0.000       0.000       0.000       0.000       7.230       7.223       7.246       7.261       7.272    
        7.290       7.361       7.585       7.815       7.583       7.361       7.310       7.310       0.000       0.000    
   2    0.000       0.000       0.000       0.000       7.282       7.294       7.266       7.319       7.323       7.329    
        7.342       7.395       7.571       7.817       7.545       7.335       7.303       7.311       0.000       0.000    
   3    0.000       0.000       0.000       0.000       7.399       7.494       7.531       7.529       7.507       7.502    
        7.506       7.525       7.595       7.819       7.489       7.272       7.297       7.317       0.000       0.000    
   4    0.000       0.000       0.000       7.579       7.614       7.815       7.813       7.814       7.817       7.816    
        7.816       7.812       7.719       7.821       7.490       7.333       7.322       7.338       0.000       0.000    
   5    0.000       0.000       7.819       7.805       7.822       7.813       7.642       7.564       7.529       7.537    
        7.605       7.814       7.821       7.804       7.476       7.358       7.350       7.369       7.391       0.000    
   6    0.000       7.822       7.823       7.819       7.766       7.570       7.441       7.384       7.362       7.364    
        7.408       7.498       7.520       7.497       7.390       7.357       7.370       7.388       7.397       0.000    
   7    0.000       7.528       7.529       7.521       7.483       7.402       7.347       7.321       7.303       7.288    
        7.320       7.360       7.374       7.366       7.333       7.355       7.384       7.404       0.000       0.000    
   8    0.000       7.380       7.378       7.377       7.365       7.342       7.326       7.312       7.288       7.228    
        7.294       7.326       7.336       7.327       7.277       7.356       7.400       7.425       0.000       0.000    
   9    0.000       0.000       7.338       7.339       7.338       7.335       7.331       7.324       7.311       7.293    
        7.315       7.332       7.342       7.345       7.344       7.383       7.420       7.450       7.484       7.501    
  10    0.000       0.000       7.334       7.336       7.338       7.339       7.337       7.333       7.326       7.320    
        7.329       7.341       7.351       7.360       7.372       7.400       7.431       7.460       7.487       7.501    

 HEAD WILL BE SAVED ON UNIT   51 AT END OF TIME STEP   51, STRESS PERIOD    3

 DRAWDOWN WILL BE SAVED ON UNIT   52 AT END OF TIME STEP   51, STRESS PERIOD    3
1
  VOLUMETRIC BUDGET FOR ENTIRE MODEL AT END OF TIME STEP   51, STRESS PERIOD   3
  ------------------------------------------------------------------------------

     CUMULATIVE VOLUMES      L**3       RATES FOR THIS TIME STEP      L**3/T
     ------------------                 ------------------------

           IN:                                      IN:
           ---                                      ---
             STORAGE =       14910.7109               STORAGE =          10.4725
       CONSTANT HEAD =           0.0000         CONSTANT HEAD =           0.0000
               WELLS =           0.0000                 WELLS =           0.0000
       RIVER LEAKAGE =      965670.5000         RIVER LEAKAGE =        2173.4312
            RECHARGE =       79016.4219              RECHARGE =         364.9565

            TOTAL IN =     1059597.6250              TOTAL IN =        2548.8601

          OUT:                                     OUT:
          ----                                     ----
             STORAGE =     1023897.7500               STORAGE =        2370.1228
       CONSTANT HEAD =           0.0000         CONSTANT HEAD =           0.0000
               WELLS =       34766.4688                 WELLS =         179.3290
       RIVER LEAKAGE =        1080.1012         RIVER LEAKAGE =           0.0000
            RECHARGE =           0.0000              RECHARGE =           0.0000

           TOTAL OUT =     1059744.3750             TOTAL OUT =        2549.4519

            IN - OUT =        -146.7500              IN - OUT =          -0.5918

 PERCENT DISCREPANCY =          -0.01     PERCENT DISCREPANCY =          -0.02






         TIME SUMMARY AT END OF TIME STEP   51 IN STRESS PERIOD    3
                    SECONDS     MINUTES      HOURS       DAYS        YEARS
                    -----------------------------------------------------------
   TIME STEP LENGTH  86400.      1440.0      24.000      1.0000     2.73785E-03
 STRESS PERIOD TIME 4.40640E+06  73440.      1224.0      51.000     0.13963    
         TOTAL TIME 1.31328E+07 2.18880E+05  3648.0      152.00     0.41615    
1

 SOLVING FOR HEAD 

    ------------------------------------------------
       NWT REQUIRED            3 OUTER ITERATIONS 
       AND A TOTAL OF          3 INNER ITERATIONS.
    ------------------------------------------------

 OUTPUT CONTROL FOR STRESS PERIOD    3   TIME STEP   52
    SAVE HEAD FOR ALL LAYERS
    SAVE DRAWDOWN FOR ALL LAYERS
    SAVE BUDGET
    PRINT HEAD FOR ALL LAYERS
    PRINT BUDGET
1
              HEAD IN LAYER   1 AT END OF TIME STEP  52 IN STRESS PERIOD    3
  ---------------------------------------------------------------------------

            1           2           3           4           5           6           7           8           9          10
           11          12          13          14          15          16          17          18          19          20
 ........................................................................................................................
   1    0.000       0.000       0.000       0.000       0.000       7.230       7.223       7.247       7.261       7.272    
        7.291       7.362       7.586       7.815       7.584       7.362       7.310       7.310       0.000       0.000    
   2    0.000       0.000       0.000       0.000       7.283       7.295       7.267       7.320       7.324       7.330    
        7.343       7.396       7.573       7.817       7.546       7.335       7.304       7.311       0.000       0.000    
   3    0.000       0.000       0.000       0.000       7.400       7.495       7.531       7.530       7.508       7.503    
        7.507       7.526       7.597       7.819       7.490       7.273       7.297       7.317       0.000       0.000    
   4    0.000       0.000       0.000       7.580       7.615       7.815       7.813       7.814       7.817       7.816    
        7.816       7.812       7.720       7.821       7.491       7.333       7.323       7.338       0.000       0.000    
   5    0.000       0.000       7.819       7.805       7.822       7.813       7.643       7.565       7.530       7.538    
        7.606       7.814       7.821       7.804       7.476       7.358       7.350       7.369       7.391       0.000    
   6    0.000       7.822       7.823       7.819       7.767       7.571       7.442       7.385       7.363       7.365    
        7.409       7.499       7.521       7.498       7.390       7.357       7.370       7.388       7.397       0.000    
   7    0.000       7.529       7.530       7.522       7.484       7.403       7.348       7.321       7.304       7.289    
        7.321       7.361       7.375       7.366       7.334       7.356       7.384       7.404       0.000       0.000    
   8    0.000       7.381       7.379       7.377       7.365       7.342       7.326       7.313       7.289       7.228    
        7.295       7.326       7.337       7.327       7.277       7.356       7.400       7.425       0.000       0.000    
   9    0.000       0.000       7.338       7.339       7.338       7.335       7.331       7.324       7.311       7.293    
        7.315       7.332       7.342       7.345       7.344       7.383       7.420       7.450       7.484       7.501    
  10    0.000       0.000       7.335       7.336       7.338       7.339       7.337       7.333       7.326       7.320    
        7.329       7.341       7.351       7.360       7.372       7.400       7.431       7.460       7.487       7.501    

 HEAD WILL BE SAVED ON UNIT   51 AT END OF TIME STEP   52, STRESS PERIOD    3

 DRAWDOWN WILL BE SAVED ON UNIT   52 AT END OF TIME STEP   52, STRESS PERIOD    3
1
  VOLUMETRIC BUDGET FOR ENTIRE MODEL AT END OF TIME STEP   52, STRESS PERIOD   3
  ------------------------------------------------------------------------------

     CUMULATIVE VOLUMES      L**3       RATES FOR THIS TIME STEP      L**3/T
     ------------------                 ------------------------

           IN:                                      IN:
           ---                                      ---
             STORAGE =       14921.0498               STORAGE =          10.3393
       CONSTANT HEAD =           0.0000         CONSTANT HEAD =           0.0000
               WELLS =           0.0000                 WELLS =           0.0000
       RIVER LEAKAGE =      967836.2500         RIVER LEAKAGE =        2165.7239
            RECHARGE =       79381.3750              RECHARGE =         364.9565

            TOTAL IN =     1062138.7500              TOTAL IN =        2541.0198

          OUT:                                     OUT:
          ----                                     ----
             STORAGE =     1026260.0000               STORAGE =        2362.2803
       CONSTANT HEAD =           0.0000         CONSTANT HEAD =           0.0000
               WELLS =       34945.7969                 WELLS =         179.3290
       RIVER LEAKAGE =        1080.1012         RIVER LEAKAGE =           0.0000
            RECHARGE =           0.0000              RECHARGE =           0.0000

           TOTAL OUT =     1062285.8750             TOTAL OUT =        2541.6094

            IN - OUT =        -147.1250              IN - OUT =          -0.5896

 PERCENT DISCREPANCY =          -0.01     PERCENT DISCREPANCY =          -0.02






         TIME SUMMARY AT END OF TIME STEP   52 IN STRESS PERIOD    3
                    SECONDS     MINUTES      HOURS       DAYS        YEARS
                    -----------------------------------------------------------
   TIME STEP LENGTH  86400.      1440.0      24.000      1.0000     2.73785E-03
 STRESS PERIOD TIME 4.49280E+06  74880.      1248.0      52.000     0.14237    
         TOTAL TIME 1.32192E+07 2.20320E+05  3672.0      153.00     0.41889    
1

 SOLVING FOR HEAD 

    ------------------------------------------------
       NWT REQUIRED            3 OUTER ITERATIONS 
       AND A TOTAL OF          3 INNER ITERATIONS.
    ------------------------------------------------

 OUTPUT CONTROL FOR STRESS PERIOD    3   TIME STEP   53
    SAVE HEAD FOR ALL LAYERS
    SAVE DRAWDOWN FOR ALL LAYERS
    SAVE BUDGET
    PRINT HEAD FOR ALL LAYERS
    PRINT BUDGET
1
              HEAD IN LAYER   1 AT END OF TIME STEP  53 IN STRESS PERIOD    3
  ---------------------------------------------------------------------------

            1           2           3           4           5           6           7           8           9          10
           11          12          13          14          15          16          17          18          19          20
 ........................................................................................................................
   1    0.000       0.000       0.000       0.000       0.000       7.231       7.223       7.247       7.262       7.273    
        7.291       7.363       7.587       7.816       7.585       7.363       7.310       7.310       0.000       0.000    
   2    0.000       0.000       0.000       0.000       7.284       7.295       7.268       7.321       7.325       7.331    
        7.344       7.397       7.574       7.817       7.547       7.336       7.304       7.311       0.000       0.000    
   3    0.000       0.000       0.000       0.000       7.401       7.496       7.532       7.530       7.508       7.504    
        7.508       7.528       7.598       7.819       7.491       7.273       7.297       7.317       0.000       0.000    
   4    0.000       0.000       0.000       7.582       7.616       7.815       7.813       7.814       7.817       7.816    
        7.816       7.812       7.721       7.821       7.492       7.334       7.323       7.338       0.000       0.000    
   5    0.000       0.000       7.819       7.806       7.822       7.813       7.643       7.566       7.531       7.539    
        7.607       7.814       7.821       7.804       7.477       7.359       7.350       7.369       7.391       0.000    
   6    0.000       7.822       7.823       7.819       7.767       7.572       7.443       7.386       7.364       7.366    
        7.410       7.500       7.521       7.498       7.391       7.357       7.370       7.388       7.397       0.000    
   7    0.000       7.530       7.531       7.523       7.485       7.404       7.348       7.322       7.304       7.289    
        7.321       7.361       7.376       7.367       7.334       7.356       7.384       7.404       0.000       0.000    
   8    0.000       7.382       7.379       7.378       7.366       7.343       7.326       7.313       7.289       7.228    
        7.295       7.326       7.337       7.327       7.277       7.357       7.400       7.425       0.000       0.000    
   9    0.000       0.000       7.338       7.340       7.339       7.335       7.331       7.324       7.311       7.294    
        7.315       7.332       7.342       7.345       7.344       7.383       7.420       7.450       7.484       7.501    
  10    0.000       0.000       7.335       7.336       7.338       7.339       7.337       7.333       7.326       7.320    
        7.329       7.341       7.351       7.360       7.372       7.400       7.431       7.460       7.487       7.501    

 HEAD WILL BE SAVED ON UNIT   51 AT END OF TIME STEP   53, STRESS PERIOD    3

 DRAWDOWN WILL BE SAVED ON UNIT   52 AT END OF TIME STEP   53, STRESS PERIOD    3
1
  VOLUMETRIC BUDGET FOR ENTIRE MODEL AT END OF TIME STEP   53, STRESS PERIOD   3
  ------------------------------------------------------------------------------

     CUMULATIVE VOLUMES      L**3       RATES FOR THIS TIME STEP      L**3/T
     ------------------                 ------------------------

           IN:                                      IN:
           ---                                      ---
             STORAGE =       14931.2559               STORAGE =          10.2056
       CONSTANT HEAD =           0.0000         CONSTANT HEAD =           0.0000
               WELLS =           0.0000                 WELLS =           0.0000
       RIVER LEAKAGE =      969994.3125         RIVER LEAKAGE =        2158.0647
            RECHARGE =       79746.3281              RECHARGE =         364.9565

            TOTAL IN =     1064671.8750              TOTAL IN =        2533.2268

          OUT:                                     OUT:
          ----                                     ----
             STORAGE =     1028614.5000               STORAGE =        2354.4854
       CONSTANT HEAD =           0.0000         CONSTANT HEAD =           0.0000
               WELLS =       35125.1250                 WELLS =         179.3290
       RIVER LEAKAGE =        1080.1012         RIVER LEAKAGE =           0.0000
            RECHARGE =           0.0000              RECHARGE =           0.0000

           TOTAL OUT =     1064819.7500             TOTAL OUT =        2533.8145

            IN - OUT =        -147.8750              IN - OUT =          -0.5876

 PERCENT DISCREPANCY =          -0.01     PERCENT DISCREPANCY =          -0.02






         TIME SUMMARY AT END OF TIME STEP   53 IN STRESS PERIOD    3
                    SECONDS     MINUTES      HOURS       DAYS        YEARS
                    -----------------------------------------------------------
   TIME STEP LENGTH  86400.      1440.0      24.000      1.0000     2.73785E-03
 STRESS PERIOD TIME 4.57920E+06  76320.      1272.0      53.000     0.14511    
         TOTAL TIME 1.33056E+07 2.21760E+05  3696.0      154.00     0.42163    
1

 SOLVING FOR HEAD 

    ------------------------------------------------
       NWT REQUIRED            3 OUTER ITERATIONS 
       AND A TOTAL OF          3 INNER ITERATIONS.
    ------------------------------------------------

 OUTPUT CONTROL FOR STRESS PERIOD    3   TIME STEP   54
    SAVE HEAD FOR ALL LAYERS
    SAVE DRAWDOWN FOR ALL LAYERS
    SAVE BUDGET
    PRINT HEAD FOR ALL LAYERS
    PRINT BUDGET
1
              HEAD IN LAYER   1 AT END OF TIME STEP  54 IN STRESS PERIOD    3
  ---------------------------------------------------------------------------

            1           2           3           4           5           6           7           8           9          10
           11          12          13          14          15          16          17          18          19          20
 ........................................................................................................................
   1    0.000       0.000       0.000       0.000       0.000       7.231       7.224       7.248       7.262       7.273    
        7.292       7.364       7.588       7.816       7.586       7.363       7.311       7.310       0.000       0.000    
   2    0.000       0.000       0.000       0.000       7.285       7.296       7.269       7.322       7.326       7.331    
        7.345       7.398       7.575       7.817       7.548       7.337       7.304       7.311       0.000       0.000    
   3    0.000       0.000       0.000       0.000       7.402       7.497       7.533       7.531       7.509       7.505    
        7.509       7.529       7.599       7.819       7.492       7.274       7.297       7.317       0.000       0.000    
   4    0.000       0.000       0.000       7.583       7.616       7.815       7.813       7.814       7.817       7.816    
        7.816       7.812       7.722       7.821       7.493       7.334       7.323       7.338       0.000       0.000    
   5    0.000       0.000       7.819       7.806       7.822       7.813       7.644       7.567       7.532       7.540    
        7.608       7.814       7.821       7.804       7.478       7.359       7.350       7.369       7.391       0.000    
   6    0.000       7.822       7.823       7.819       7.767       7.573       7.444       7.387       7.365       7.366    
        7.411       7.501       7.522       7.499       7.391       7.357       7.370       7.388       7.397       0.000    
   7    0.000       7.531       7.532       7.524       7.486       7.405       7.349       7.322       7.304       7.289    
        7.322       7.362       7.376       7.367       7.334       7.356       7.384       7.404       0.000       0.000    
   8    0.000       7.383       7.380       7.379       7.366       7.343       7.326       7.313       7.289       7.228    
        7.295       7.326       7.337       7.327       7.277       7.357       7.400       7.425       0.000       0.000    
   9    0.000       0.000       7.339       7.340       7.339       7.335       7.331       7.324       7.311       7.294    
        7.315       7.332       7.342       7.345       7.344       7.383       7.420       7.450       7.484       7.501    
  10    0.000       0.000       7.335       7.336       7.338       7.339       7.337       7.333       7.326       7.320    
        7.329       7.341       7.351       7.360       7.372       7.400       7.431       7.460       7.487       7.501    

 HEAD WILL BE SAVED ON UNIT   51 AT END OF TIME STEP   54, STRESS PERIOD    3

 DRAWDOWN WILL BE SAVED ON UNIT   52 AT END OF TIME STEP   54, STRESS PERIOD    3
1
  VOLUMETRIC BUDGET FOR ENTIRE MODEL AT END OF TIME STEP   54, STRESS PERIOD   3
  ------------------------------------------------------------------------------

     CUMULATIVE VOLUMES      L**3       RATES FOR THIS TIME STEP      L**3/T
     ------------------                 ------------------------

           IN:                                      IN:
           ---                                      ---
             STORAGE =       14941.3340               STORAGE =          10.0777
       CONSTANT HEAD =           0.0000         CONSTANT HEAD =           0.0000
               WELLS =           0.0000                 WELLS =           0.0000
       RIVER LEAKAGE =      972144.8125         RIVER LEAKAGE =        2150.4705
            RECHARGE =       80111.2812              RECHARGE =         364.9565

            TOTAL IN =     1067197.3750              TOTAL IN =        2525.5046

          OUT:                                     OUT:
          ----                                     ----
             STORAGE =     1030961.2500               STORAGE =        2346.7615
       CONSTANT HEAD =           0.0000         CONSTANT HEAD =           0.0000
               WELLS =       35304.4531                 WELLS =         179.3290
       RIVER LEAKAGE =        1080.1012         RIVER LEAKAGE =           0.0000
            RECHARGE =           0.0000              RECHARGE =           0.0000

           TOTAL OUT =     1067345.8750             TOTAL OUT =        2526.0906

            IN - OUT =        -148.5000              IN - OUT =          -0.5859

 PERCENT DISCREPANCY =          -0.01     PERCENT DISCREPANCY =          -0.02






         TIME SUMMARY AT END OF TIME STEP   54 IN STRESS PERIOD    3
                    SECONDS     MINUTES      HOURS       DAYS        YEARS
                    -----------------------------------------------------------
   TIME STEP LENGTH  86400.      1440.0      24.000      1.0000     2.73785E-03
 STRESS PERIOD TIME 4.66560E+06  77760.      1296.0      54.000     0.14784    
         TOTAL TIME 1.33920E+07 2.23200E+05  3720.0      155.00     0.42437    
1

 SOLVING FOR HEAD 

    ------------------------------------------------
       NWT REQUIRED            3 OUTER ITERATIONS 
       AND A TOTAL OF          3 INNER ITERATIONS.
    ------------------------------------------------

 OUTPUT CONTROL FOR STRESS PERIOD    3   TIME STEP   55
    SAVE HEAD FOR ALL LAYERS
    SAVE DRAWDOWN FOR ALL LAYERS
    SAVE BUDGET
    PRINT HEAD FOR ALL LAYERS
    PRINT BUDGET
1
              HEAD IN LAYER   1 AT END OF TIME STEP  55 IN STRESS PERIOD    3
  ---------------------------------------------------------------------------

            1           2           3           4           5           6           7           8           9          10
           11          12          13          14          15          16          17          18          19          20
 ........................................................................................................................
   1    0.000       0.000       0.000       0.000       0.000       7.232       7.224       7.248       7.262       7.273    
        7.293       7.365       7.589       7.816       7.587       7.364       7.311       7.310       0.000       0.000    
   2    0.000       0.000       0.000       0.000       7.285       7.297       7.270       7.323       7.326       7.332    
        7.346       7.400       7.576       7.817       7.549       7.338       7.304       7.311       0.000       0.000    
   3    0.000       0.000       0.000       0.000       7.403       7.498       7.534       7.532       7.510       7.506    
        7.510       7.530       7.601       7.819       7.493       7.275       7.298       7.318       0.000       0.000    
   4    0.000       0.000       0.000       7.585       7.617       7.815       7.813       7.814       7.817       7.816    
        7.816       7.812       7.723       7.821       7.493       7.335       7.323       7.338       0.000       0.000    
   5    0.000       0.000       7.819       7.806       7.822       7.813       7.645       7.568       7.533       7.541    
        7.608       7.814       7.822       7.804       7.478       7.359       7.350       7.369       7.391       0.000    
   6    0.000       7.822       7.823       7.819       7.767       7.574       7.445       7.388       7.366       7.367    
        7.412       7.501       7.523       7.500       7.392       7.358       7.370       7.388       7.397       0.000    
   7    0.000       7.532       7.533       7.524       7.486       7.405       7.349       7.323       7.305       7.290    
        7.322       7.362       7.377       7.368       7.335       7.356       7.384       7.404       0.000       0.000    
   8    0.000       7.384       7.381       7.379       7.367       7.344       7.326       7.313       7.289       7.229    
        7.295       7.327       7.337       7.328       7.278       7.357       7.399       7.425       0.000       0.000    
   9    0.000       0.000       7.339       7.340       7.339       7.335       7.331       7.324       7.311       7.294    
        7.315       7.332       7.342       7.345       7.344       7.383       7.420       7.450       7.484       7.501    
  10    0.000       0.000       7.335       7.337       7.338       7.339       7.337       7.333       7.326       7.320    
        7.329       7.341       7.351       7.360       7.372       7.400       7.431       7.460       7.487       7.501    

 HEAD WILL BE SAVED ON UNIT   51 AT END OF TIME STEP   55, STRESS PERIOD    3

 DRAWDOWN WILL BE SAVED ON UNIT   52 AT END OF TIME STEP   55, STRESS PERIOD    3
1
  VOLUMETRIC BUDGET FOR ENTIRE MODEL AT END OF TIME STEP   55, STRESS PERIOD   3
  ------------------------------------------------------------------------------

     CUMULATIVE VOLUMES      L**3       RATES FOR THIS TIME STEP      L**3/T
     ------------------                 ------------------------

           IN:                                      IN:
           ---                                      ---
             STORAGE =       14951.2822               STORAGE =           9.9481
       CONSTANT HEAD =           0.0000         CONSTANT HEAD =           0.0000
               WELLS =           0.0000                 WELLS =           0.0000
       RIVER LEAKAGE =      974287.7500         RIVER LEAKAGE =        2142.9153
            RECHARGE =       80476.2344              RECHARGE =         364.9565

            TOTAL IN =     1069715.2500              TOTAL IN =        2517.8198

          OUT:                                     OUT:
          ----                                     ----
             STORAGE =     1033300.3125               STORAGE =        2339.0747
       CONSTANT HEAD =           0.0000         CONSTANT HEAD =           0.0000
               WELLS =       35483.7812                 WELLS =         179.3290
       RIVER LEAKAGE =        1080.1012         RIVER LEAKAGE =           0.0000
            RECHARGE =           0.0000              RECHARGE =           0.0000

           TOTAL OUT =     1069864.2500             TOTAL OUT =        2518.4038

            IN - OUT =        -149.0000              IN - OUT =          -0.5840

 PERCENT DISCREPANCY =          -0.01     PERCENT DISCREPANCY =          -0.02






         TIME SUMMARY AT END OF TIME STEP   55 IN STRESS PERIOD    3
                    SECONDS     MINUTES      HOURS       DAYS        YEARS
                    -----------------------------------------------------------
   TIME STEP LENGTH  86400.      1440.0      24.000      1.0000     2.73785E-03
 STRESS PERIOD TIME 4.75200E+06  79200.      1320.0      55.000     0.15058    
         TOTAL TIME 1.34784E+07 2.24640E+05  3744.0      156.00     0.42710    
1

 SOLVING FOR HEAD 

    ------------------------------------------------
       NWT REQUIRED            3 OUTER ITERATIONS 
       AND A TOTAL OF          3 INNER ITERATIONS.
    ------------------------------------------------

 OUTPUT CONTROL FOR STRESS PERIOD    3   TIME STEP   56
    SAVE HEAD FOR ALL LAYERS
    SAVE DRAWDOWN FOR ALL LAYERS
    SAVE BUDGET
    PRINT HEAD FOR ALL LAYERS
    PRINT BUDGET
1
              HEAD IN LAYER   1 AT END OF TIME STEP  56 IN STRESS PERIOD    3
  ---------------------------------------------------------------------------

            1           2           3           4           5           6           7           8           9          10
           11          12          13          14          15          16          17          18          19          20
 ........................................................................................................................
   1    0.000       0.000       0.000       0.000       0.000       7.232       7.225       7.249       7.263       7.274    
        7.293       7.366       7.590       7.816       7.588       7.365       7.311       7.310       0.000       0.000    
   2    0.000       0.000       0.000       0.000       7.286       7.298       7.271       7.323       7.327       7.333    
        7.347       7.401       7.577       7.817       7.549       7.338       7.305       7.311       0.000       0.000    
   3    0.000       0.000       0.000       0.000       7.405       7.498       7.534       7.533       7.511       7.507    
        7.511       7.531       7.602       7.819       7.494       7.276       7.298       7.318       0.000       0.000    
   4    0.000       0.000       0.000       7.586       7.618       7.815       7.813       7.814       7.817       7.816    
        7.816       7.812       7.723       7.821       7.494       7.335       7.323       7.338       0.000       0.000    
   5    0.000       0.000       7.820       7.806       7.822       7.813       7.646       7.569       7.534       7.542    
        7.609       7.814       7.822       7.804       7.479       7.360       7.350       7.369       7.391       0.000    
   6    0.000       7.822       7.823       7.819       7.767       7.574       7.446       7.389       7.366       7.368    
        7.413       7.502       7.524       7.500       7.393       7.358       7.370       7.388       7.397       0.000    
   7    0.000       7.533       7.533       7.525       7.487       7.406       7.350       7.323       7.305       7.290    
        7.323       7.363       7.377       7.368       7.335       7.356       7.384       7.404       0.000       0.000    
   8    0.000       7.385       7.382       7.380       7.367       7.344       7.327       7.313       7.289       7.229    
        7.295       7.327       7.337       7.328       7.278       7.357       7.399       7.425       0.000       0.000    
   9    0.000       0.000       7.339       7.340       7.339       7.335       7.331       7.324       7.311       7.294    
        7.315       7.332       7.342       7.345       7.344       7.383       7.420       7.450       7.484       7.501    
  10    0.000       0.000       7.335       7.337       7.338       7.339       7.337       7.333       7.326       7.320    
        7.329       7.341       7.351       7.360       7.372       7.400       7.431       7.460       7.487       7.501    

 HEAD WILL BE SAVED ON UNIT   51 AT END OF TIME STEP   56, STRESS PERIOD    3

 DRAWDOWN WILL BE SAVED ON UNIT   52 AT END OF TIME STEP   56, STRESS PERIOD    3
1
  VOLUMETRIC BUDGET FOR ENTIRE MODEL AT END OF TIME STEP   56, STRESS PERIOD   3
  ------------------------------------------------------------------------------

     CUMULATIVE VOLUMES      L**3       RATES FOR THIS TIME STEP      L**3/T
     ------------------                 ------------------------

           IN:                                      IN:
           ---                                      ---
             STORAGE =       14961.1094               STORAGE =           9.8269
       CONSTANT HEAD =           0.0000         CONSTANT HEAD =           0.0000
               WELLS =           0.0000                 WELLS =           0.0000
       RIVER LEAKAGE =      976423.1875         RIVER LEAKAGE =        2135.4155
            RECHARGE =       80841.1875              RECHARGE =         364.9565

            TOTAL IN =     1072225.5000              TOTAL IN =        2510.1990

          OUT:                                     OUT:
          ----                                     ----
             STORAGE =     1035631.7500               STORAGE =        2331.4519
       CONSTANT HEAD =           0.0000         CONSTANT HEAD =           0.0000
               WELLS =       35663.1094                 WELLS =         179.3290
       RIVER LEAKAGE =        1080.1012         RIVER LEAKAGE =           0.0000
            RECHARGE =           0.0000              RECHARGE =           0.0000

           TOTAL OUT =     1072375.0000             TOTAL OUT =        2510.7810

            IN - OUT =        -149.5000              IN - OUT =          -0.5820

 PERCENT DISCREPANCY =          -0.01     PERCENT DISCREPANCY =          -0.02






         TIME SUMMARY AT END OF TIME STEP   56 IN STRESS PERIOD    3
                    SECONDS     MINUTES      HOURS       DAYS        YEARS
                    -----------------------------------------------------------
   TIME STEP LENGTH  86400.      1440.0      24.000      1.0000     2.73785E-03
 STRESS PERIOD TIME 4.83840E+06  80640.      1344.0      56.000     0.15332    
         TOTAL TIME 1.35648E+07 2.26080E+05  3768.0      157.00     0.42984    
1

 SOLVING FOR HEAD 

    ------------------------------------------------
       NWT REQUIRED            3 OUTER ITERATIONS 
       AND A TOTAL OF          3 INNER ITERATIONS.
    ------------------------------------------------

 OUTPUT CONTROL FOR STRESS PERIOD    3   TIME STEP   57
    SAVE HEAD FOR ALL LAYERS
    SAVE DRAWDOWN FOR ALL LAYERS
    SAVE BUDGET
    PRINT HEAD FOR ALL LAYERS
    PRINT BUDGET
1
              HEAD IN LAYER   1 AT END OF TIME STEP  57 IN STRESS PERIOD    3
  ---------------------------------------------------------------------------

            1           2           3           4           5           6           7           8           9          10
           11          12          13          14          15          16          17          18          19          20
 ........................................................................................................................
   1    0.000       0.000       0.000       0.000       0.000       7.232       7.225       7.249       7.263       7.274    
        7.294       7.367       7.591       7.816       7.588       7.366       7.312       7.310       0.000       0.000    
   2    0.000       0.000       0.000       0.000       7.287       7.299       7.272       7.324       7.328       7.334    
        7.347       7.402       7.578       7.817       7.550       7.339       7.305       7.311       0.000       0.000    
   3    0.000       0.000       0.000       0.000       7.406       7.499       7.535       7.534       7.512       7.508    
        7.512       7.532       7.603       7.819       7.495       7.276       7.298       7.318       0.000       0.000    
   4    0.000       0.000       0.000       7.588       7.619       7.815       7.813       7.814       7.817       7.816    
        7.817       7.812       7.724       7.821       7.495       7.336       7.324       7.339       0.000       0.000    
   5    0.000       0.000       7.820       7.806       7.822       7.813       7.646       7.570       7.535       7.543    
        7.610       7.815       7.822       7.804       7.480       7.360       7.350       7.369       7.391       0.000    
   6    0.000       7.822       7.823       7.819       7.767       7.575       7.447       7.390       7.367       7.369    
        7.414       7.503       7.524       7.501       7.393       7.358       7.370       7.388       7.397       0.000    
   7    0.000       7.534       7.534       7.526       7.488       7.407       7.351       7.323       7.305       7.291    
        7.323       7.363       7.378       7.369       7.335       7.356       7.384       7.404       0.000       0.000    
   8    0.000       7.386       7.382       7.380       7.368       7.344       7.327       7.313       7.289       7.229    
        7.295       7.327       7.338       7.328       7.278       7.357       7.399       7.424       0.000       0.000    
   9    0.000       0.000       7.339       7.341       7.339       7.335       7.331       7.324       7.311       7.294    
        7.315       7.332       7.342       7.345       7.344       7.383       7.419       7.450       7.484       7.501    
  10    0.000       0.000       7.335       7.337       7.338       7.339       7.337       7.333       7.326       7.320    
        7.329       7.341       7.351       7.360       7.372       7.400       7.431       7.460       7.487       7.501    

 HEAD WILL BE SAVED ON UNIT   51 AT END OF TIME STEP   57, STRESS PERIOD    3

 DRAWDOWN WILL BE SAVED ON UNIT   52 AT END OF TIME STEP   57, STRESS PERIOD    3
1
  VOLUMETRIC BUDGET FOR ENTIRE MODEL AT END OF TIME STEP   57, STRESS PERIOD   3
  ------------------------------------------------------------------------------

     CUMULATIVE VOLUMES      L**3       RATES FOR THIS TIME STEP      L**3/T
     ------------------                 ------------------------

           IN:                                      IN:
           ---                                      ---
             STORAGE =       14970.8311               STORAGE =           9.7220
       CONSTANT HEAD =           0.0000         CONSTANT HEAD =           0.0000
               WELLS =           0.0000                 WELLS =           0.0000
       RIVER LEAKAGE =      978551.1250         RIVER LEAKAGE =        2127.9661
            RECHARGE =       81206.1406              RECHARGE =         364.9565

            TOTAL IN =     1074728.1250              TOTAL IN =        2502.6445

          OUT:                                     OUT:
          ----                                     ----
             STORAGE =     1037955.6250               STORAGE =        2323.8958
       CONSTANT HEAD =           0.0000         CONSTANT HEAD =           0.0000
               WELLS =       35842.4375                 WELLS =         179.3290
       RIVER LEAKAGE =        1080.1012         RIVER LEAKAGE =           0.0000
            RECHARGE =           0.0000              RECHARGE =           0.0000

           TOTAL OUT =     1074878.1250             TOTAL OUT =        2503.2249

            IN - OUT =        -150.0000              IN - OUT =          -0.5803

 PERCENT DISCREPANCY =          -0.01     PERCENT DISCREPANCY =          -0.02






         TIME SUMMARY AT END OF TIME STEP   57 IN STRESS PERIOD    3
                    SECONDS     MINUTES      HOURS       DAYS        YEARS
                    -----------------------------------------------------------
   TIME STEP LENGTH  86400.      1440.0      24.000      1.0000     2.73785E-03
 STRESS PERIOD TIME 4.92480E+06  82080.      1368.0      57.000     0.15606    
         TOTAL TIME 1.36512E+07 2.27520E+05  3792.0      158.00     0.43258    
1

 SOLVING FOR HEAD 

    ------------------------------------------------
       NWT REQUIRED            3 OUTER ITERATIONS 
       AND A TOTAL OF          3 INNER ITERATIONS.
    ------------------------------------------------

 OUTPUT CONTROL FOR STRESS PERIOD    3   TIME STEP   58
    SAVE HEAD FOR ALL LAYERS
    SAVE DRAWDOWN FOR ALL LAYERS
    SAVE BUDGET
    PRINT HEAD FOR ALL LAYERS
    PRINT BUDGET
1
              HEAD IN LAYER   1 AT END OF TIME STEP  58 IN STRESS PERIOD    3
  ---------------------------------------------------------------------------

            1           2           3           4           5           6           7           8           9          10
           11          12          13          14          15          16          17          18          19          20
 ........................................................................................................................
   1    0.000       0.000       0.000       0.000       0.000       7.233       7.226       7.249       7.264       7.275    
        7.295       7.368       7.592       7.816       7.589       7.366       7.312       7.310       0.000       0.000    
   2    0.000       0.000       0.000       0.000       7.288       7.299       7.273       7.325       7.329       7.334    
        7.348       7.403       7.580       7.817       7.551       7.340       7.305       7.311       0.000       0.000    
   3    0.000       0.000       0.000       0.000       7.407       7.500       7.536       7.534       7.513       7.509    
        7.513       7.534       7.605       7.819       7.496       7.277       7.298       7.318       0.000       0.000    
   4    0.000       0.000       0.000       7.589       7.620       7.815       7.813       7.814       7.817       7.816    
        7.817       7.812       7.725       7.822       7.496       7.337       7.324       7.339       0.000       0.000    
   5    0.000       0.000       7.820       7.806       7.822       7.813       7.647       7.571       7.536       7.543    
        7.611       7.815       7.822       7.804       7.480       7.361       7.351       7.369       7.391       0.000    
   6    0.000       7.822       7.823       7.819       7.767       7.576       7.448       7.391       7.368       7.370    
        7.415       7.504       7.525       7.502       7.394       7.358       7.370       7.388       7.397       0.000    
   7    0.000       7.535       7.535       7.527       7.489       7.408       7.351       7.324       7.306       7.291    
        7.324       7.364       7.378       7.369       7.336       7.356       7.384       7.404       0.000       0.000    
   8    0.000       7.387       7.383       7.381       7.368       7.345       7.327       7.313       7.289       7.229    
        7.296       7.327       7.338       7.328       7.278       7.357       7.399       7.424       0.000       0.000    
   9    0.000       0.000       7.340       7.341       7.340       7.336       7.331       7.324       7.311       7.294    
        7.315       7.333       7.342       7.345       7.344       7.383       7.419       7.450       7.484       7.501    
  10    0.000       0.000       7.335       7.337       7.338       7.339       7.337       7.333       7.326       7.320    
        7.329       7.341       7.351       7.360       7.372       7.400       7.431       7.460       7.487       7.501    

 HEAD WILL BE SAVED ON UNIT   51 AT END OF TIME STEP   58, STRESS PERIOD    3

 DRAWDOWN WILL BE SAVED ON UNIT   52 AT END OF TIME STEP   58, STRESS PERIOD    3
1
  VOLUMETRIC BUDGET FOR ENTIRE MODEL AT END OF TIME STEP   58, STRESS PERIOD   3
  ------------------------------------------------------------------------------

     CUMULATIVE VOLUMES      L**3       RATES FOR THIS TIME STEP      L**3/T
     ------------------                 ------------------------

           IN:                                      IN:
           ---                                      ---
             STORAGE =       14980.4473               STORAGE =           9.6162
       CONSTANT HEAD =           0.0000         CONSTANT HEAD =           0.0000
               WELLS =           0.0000                 WELLS =           0.0000
       RIVER LEAKAGE =      980671.6875         RIVER LEAKAGE =        2120.5859
            RECHARGE =       81571.0938              RECHARGE =         364.9565

            TOTAL IN =     1077223.2500              TOTAL IN =        2495.1587

          OUT:                                     OUT:
          ----                                     ----
             STORAGE =     1040272.0625               STORAGE =        2316.4080
       CONSTANT HEAD =           0.0000         CONSTANT HEAD =           0.0000
               WELLS =       36021.7656                 WELLS =         179.3290
       RIVER LEAKAGE =        1080.1012         RIVER LEAKAGE =           0.0000
            RECHARGE =           0.0000              RECHARGE =           0.0000

           TOTAL OUT =     1077374.0000             TOTAL OUT =        2495.7371

            IN - OUT =        -150.7500              IN - OUT =          -0.5784

 PERCENT DISCREPANCY =          -0.01     PERCENT DISCREPANCY =          -0.02






         TIME SUMMARY AT END OF TIME STEP   58 IN STRESS PERIOD    3
                    SECONDS     MINUTES      HOURS       DAYS        YEARS
                    -----------------------------------------------------------
   TIME STEP LENGTH  86400.      1440.0      24.000      1.0000     2.73785E-03
 STRESS PERIOD TIME 5.01120E+06  83520.      1392.0      58.000     0.15880    
         TOTAL TIME 1.37376E+07 2.28960E+05  3816.0      159.00     0.43532    
1

 SOLVING FOR HEAD 

    ------------------------------------------------
       NWT REQUIRED            3 OUTER ITERATIONS 
       AND A TOTAL OF          3 INNER ITERATIONS.
    ------------------------------------------------

 OUTPUT CONTROL FOR STRESS PERIOD    3   TIME STEP   59
    SAVE HEAD FOR ALL LAYERS
    SAVE DRAWDOWN FOR ALL LAYERS
    SAVE BUDGET
    PRINT HEAD FOR ALL LAYERS
    PRINT BUDGET
1
              HEAD IN LAYER   1 AT END OF TIME STEP  59 IN STRESS PERIOD    3
  ---------------------------------------------------------------------------

            1           2           3           4           5           6           7           8           9          10
           11          12          13          14          15          16          17          18          19          20
 ........................................................................................................................
   1    0.000       0.000       0.000       0.000       0.000       7.233       7.226       7.250       7.264       7.275    
        7.295       7.369       7.593       7.816       7.590       7.367       7.312       7.310       0.000       0.000    
   2    0.000       0.000       0.000       0.000       7.289       7.300       7.274       7.326       7.329       7.335    
        7.349       7.404       7.581       7.817       7.552       7.340       7.305       7.311       0.000       0.000    
   3    0.000       0.000       0.000       0.000       7.408       7.501       7.537       7.535       7.514       7.510    
        7.514       7.535       7.606       7.819       7.497       7.278       7.298       7.318       0.000       0.000    
   4    0.000       0.000       0.000       7.591       7.621       7.815       7.813       7.814       7.817       7.816    
        7.817       7.812       7.726       7.822       7.496       7.337       7.324       7.339       0.000       0.000    
   5    0.000       0.000       7.820       7.806       7.822       7.813       7.648       7.571       7.537       7.544    
        7.611       7.815       7.822       7.804       7.481       7.361       7.351       7.369       7.391       0.000    
   6    0.000       7.822       7.823       7.820       7.768       7.577       7.449       7.391       7.369       7.371    
        7.416       7.504       7.526       7.502       7.394       7.359       7.370       7.388       7.397       0.000    
   7    0.000       7.536       7.536       7.528       7.490       7.409       7.352       7.324       7.306       7.291    
        7.324       7.364       7.379       7.370       7.336       7.356       7.384       7.404       0.000       0.000    
   8    0.000       7.388       7.384       7.382       7.369       7.345       7.327       7.313       7.289       7.229    
        7.296       7.327       7.338       7.328       7.278       7.357       7.399       7.424       0.000       0.000    
   9    0.000       0.000       7.340       7.341       7.340       7.336       7.331       7.324       7.311       7.294    
        7.315       7.333       7.343       7.345       7.344       7.383       7.419       7.450       7.484       7.501    
  10    0.000       0.000       7.335       7.337       7.338       7.339       7.337       7.333       7.326       7.320    
        7.329       7.341       7.351       7.360       7.372       7.400       7.431       7.460       7.486       7.501    

 HEAD WILL BE SAVED ON UNIT   51 AT END OF TIME STEP   59, STRESS PERIOD    3

 DRAWDOWN WILL BE SAVED ON UNIT   52 AT END OF TIME STEP   59, STRESS PERIOD    3
1
  VOLUMETRIC BUDGET FOR ENTIRE MODEL AT END OF TIME STEP   59, STRESS PERIOD   3
  ------------------------------------------------------------------------------

     CUMULATIVE VOLUMES      L**3       RATES FOR THIS TIME STEP      L**3/T
     ------------------                 ------------------------

           IN:                                      IN:
           ---                                      ---
             STORAGE =       14989.9570               STORAGE =           9.5094
       CONSTANT HEAD =           0.0000         CONSTANT HEAD =           0.0000
               WELLS =           0.0000                 WELLS =           0.0000
       RIVER LEAKAGE =      982784.9375         RIVER LEAKAGE =        2113.2468
            RECHARGE =       81936.0469              RECHARGE =         364.9565

            TOTAL IN =     1079710.8750              TOTAL IN =        2487.7126

          OUT:                                     OUT:
          ----                                     ----
             STORAGE =     1042581.0000               STORAGE =        2308.9602
       CONSTANT HEAD =           0.0000         CONSTANT HEAD =           0.0000
               WELLS =       36201.0938                 WELLS =         179.3290
       RIVER LEAKAGE =        1080.1012         RIVER LEAKAGE =           0.0000
            RECHARGE =           0.0000              RECHARGE =           0.0000

           TOTAL OUT =     1079862.2500             TOTAL OUT =        2488.2893

            IN - OUT =        -151.3750              IN - OUT =          -0.5767

 PERCENT DISCREPANCY =          -0.01     PERCENT DISCREPANCY =          -0.02






         TIME SUMMARY AT END OF TIME STEP   59 IN STRESS PERIOD    3
                    SECONDS     MINUTES      HOURS       DAYS        YEARS
                    -----------------------------------------------------------
   TIME STEP LENGTH  86400.      1440.0      24.000      1.0000     2.73785E-03
 STRESS PERIOD TIME 5.09760E+06  84960.      1416.0      59.000     0.16153    
         TOTAL TIME 1.38240E+07 2.30400E+05  3840.0      160.00     0.43806    
1

 SOLVING FOR HEAD 

    ------------------------------------------------
       NWT REQUIRED            3 OUTER ITERATIONS 
       AND A TOTAL OF          3 INNER ITERATIONS.
    ------------------------------------------------

 OUTPUT CONTROL FOR STRESS PERIOD    3   TIME STEP   60
    SAVE HEAD FOR ALL LAYERS
    SAVE DRAWDOWN FOR ALL LAYERS
    SAVE BUDGET
    PRINT HEAD FOR ALL LAYERS
    PRINT BUDGET
1
              HEAD IN LAYER   1 AT END OF TIME STEP  60 IN STRESS PERIOD    3
  ---------------------------------------------------------------------------

            1           2           3           4           5           6           7           8           9          10
           11          12          13          14          15          16          17          18          19          20
 ........................................................................................................................
   1    0.000       0.000       0.000       0.000       0.000       7.234       7.227       7.250       7.265       7.276    
        7.296       7.370       7.594       7.816       7.591       7.368       7.312       7.310       0.000       0.000    
   2    0.000       0.000       0.000       0.000       7.289       7.301       7.275       7.327       7.330       7.336    
        7.350       7.406       7.582       7.817       7.553       7.341       7.306       7.311       0.000       0.000    
   3    0.000       0.000       0.000       0.000       7.409       7.502       7.537       7.536       7.515       7.510    
        7.515       7.536       7.607       7.819       7.498       7.279       7.299       7.318       0.000       0.000    
   4    0.000       0.000       0.000       7.592       7.622       7.815       7.813       7.814       7.817       7.816    
        7.817       7.812       7.727       7.822       7.497       7.338       7.324       7.339       0.000       0.000    
   5    0.000       0.000       7.820       7.806       7.822       7.813       7.649       7.572       7.538       7.545    
        7.612       7.815       7.822       7.804       7.482       7.362       7.351       7.369       7.391       0.000    
   6    0.000       7.822       7.823       7.820       7.768       7.578       7.450       7.392       7.370       7.371    
        7.416       7.505       7.526       7.503       7.395       7.359       7.370       7.388       7.397       0.000    
   7    0.000       7.537       7.537       7.528       7.490       7.409       7.353       7.325       7.306       7.292    
        7.324       7.365       7.379       7.370       7.336       7.356       7.384       7.404       0.000       0.000    
   8    0.000       7.389       7.384       7.382       7.370       7.346       7.328       7.314       7.289       7.230    
        7.296       7.328       7.338       7.329       7.279       7.357       7.399       7.424       0.000       0.000    
   9    0.000       0.000       7.340       7.341       7.340       7.336       7.331       7.324       7.311       7.294    
        7.315       7.333       7.343       7.345       7.344       7.383       7.419       7.450       7.484       7.501    
  10    0.000       0.000       7.335       7.337       7.339       7.339       7.337       7.333       7.326       7.320    
        7.329       7.341       7.351       7.360       7.371       7.400       7.431       7.460       7.486       7.501    

 HEAD WILL BE SAVED ON UNIT   51 AT END OF TIME STEP   60, STRESS PERIOD    3

 DRAWDOWN WILL BE SAVED ON UNIT   52 AT END OF TIME STEP   60, STRESS PERIOD    3
1
  VOLUMETRIC BUDGET FOR ENTIRE MODEL AT END OF TIME STEP   60, STRESS PERIOD   3
  ------------------------------------------------------------------------------

     CUMULATIVE VOLUMES      L**3       RATES FOR THIS TIME STEP      L**3/T
     ------------------                 ------------------------

           IN:                                      IN:
           ---                                      ---
             STORAGE =       14999.3584               STORAGE =           9.4015
       CONSTANT HEAD =           0.0000         CONSTANT HEAD =           0.0000
               WELLS =           0.0000                 WELLS =           0.0000
       RIVER LEAKAGE =      984890.8750         RIVER LEAKAGE =        2105.9536
            RECHARGE =       82301.0000              RECHARGE =         364.9565

            TOTAL IN =     1082191.2500              TOTAL IN =        2480.3115

          OUT:                                     OUT:
          ----                                     ----
             STORAGE =     1044882.5625               STORAGE =        2301.5571
       CONSTANT HEAD =           0.0000         CONSTANT HEAD =           0.0000
               WELLS =       36380.4219                 WELLS =         179.3290
       RIVER LEAKAGE =        1080.1012         RIVER LEAKAGE =           0.0000
            RECHARGE =           0.0000              RECHARGE =           0.0000

           TOTAL OUT =     1082343.1250             TOTAL OUT =        2480.8862

            IN - OUT =        -151.8750              IN - OUT =          -0.5747

 PERCENT DISCREPANCY =          -0.01     PERCENT DISCREPANCY =          -0.02






         TIME SUMMARY AT END OF TIME STEP   60 IN STRESS PERIOD    3
                    SECONDS     MINUTES      HOURS       DAYS        YEARS
                    -----------------------------------------------------------
   TIME STEP LENGTH  86400.      1440.0      24.000      1.0000     2.73785E-03
 STRESS PERIOD TIME 5.18400E+06  86400.      1440.0      60.000     0.16427    
         TOTAL TIME 1.39104E+07 2.31840E+05  3864.0      161.00     0.44079    
1

 SOLVING FOR HEAD 

    ------------------------------------------------
       NWT REQUIRED            3 OUTER ITERATIONS 
       AND A TOTAL OF          3 INNER ITERATIONS.
    ------------------------------------------------

 OUTPUT CONTROL FOR STRESS PERIOD    3   TIME STEP   61
    SAVE HEAD FOR ALL LAYERS
    SAVE DRAWDOWN FOR ALL LAYERS
    SAVE BUDGET
    PRINT HEAD FOR ALL LAYERS
    PRINT BUDGET
1
              HEAD IN LAYER   1 AT END OF TIME STEP  61 IN STRESS PERIOD    3
  ---------------------------------------------------------------------------

            1           2           3           4           5           6           7           8           9          10
           11          12          13          14          15          16          17          18          19          20
 ........................................................................................................................
   1    0.000       0.000       0.000       0.000       0.000       7.234       7.227       7.251       7.265       7.276    
        7.296       7.371       7.594       7.816       7.592       7.368       7.313       7.310       0.000       0.000    
   2    0.000       0.000       0.000       0.000       7.290       7.302       7.276       7.328       7.331       7.337    
        7.351       7.407       7.583       7.817       7.554       7.342       7.306       7.311       0.000       0.000    
   3    0.000       0.000       0.000       0.000       7.410       7.503       7.538       7.537       7.515       7.511    
        7.515       7.537       7.608       7.819       7.498       7.279       7.299       7.318       0.000       0.000    
   4    0.000       0.000       0.000       7.594       7.623       7.815       7.813       7.814       7.817       7.817    
        7.817       7.813       7.727       7.822       7.498       7.338       7.324       7.339       0.000       0.000    
   5    0.000       0.000       7.820       7.807       7.822       7.813       7.649       7.573       7.539       7.546    
        7.613       7.815       7.822       7.804       7.482       7.362       7.351       7.369       7.391       0.000    
   6    0.000       7.822       7.823       7.820       7.768       7.578       7.451       7.393       7.370       7.372    
        7.417       7.506       7.527       7.504       7.396       7.359       7.370       7.388       7.397       0.000    
   7    0.000       7.537       7.538       7.529       7.491       7.410       7.353       7.325       7.307       7.292    
        7.325       7.365       7.380       7.371       7.337       7.357       7.384       7.404       0.000       0.000    
   8    0.000       7.389       7.385       7.383       7.370       7.346       7.328       7.314       7.290       7.230    
        7.296       7.328       7.339       7.329       7.279       7.357       7.399       7.424       0.000       0.000    
   9    0.000       0.000       7.341       7.342       7.340       7.336       7.331       7.324       7.311       7.294    
        7.315       7.333       7.343       7.345       7.344       7.383       7.419       7.450       7.484       7.501    
  10    0.000       0.000       7.335       7.337       7.339       7.339       7.337       7.333       7.326       7.320    
        7.329       7.341       7.351       7.360       7.371       7.400       7.431       7.460       7.486       7.501    

 HEAD WILL BE SAVED ON UNIT   51 AT END OF TIME STEP   61, STRESS PERIOD    3

 DRAWDOWN WILL BE SAVED ON UNIT   52 AT END OF TIME STEP   61, STRESS PERIOD    3
1
  VOLUMETRIC BUDGET FOR ENTIRE MODEL AT END OF TIME STEP   61, STRESS PERIOD   3
  ------------------------------------------------------------------------------

     CUMULATIVE VOLUMES      L**3       RATES FOR THIS TIME STEP      L**3/T
     ------------------                 ------------------------

           IN:                                      IN:
           ---                                      ---
             STORAGE =       15008.6514               STORAGE =           9.2926
       CONSTANT HEAD =           0.0000         CONSTANT HEAD =           0.0000
               WELLS =           0.0000                 WELLS =           0.0000
       RIVER LEAKAGE =      986989.5625         RIVER LEAKAGE =        2098.7117
            RECHARGE =       82665.9531              RECHARGE =         364.9565

            TOTAL IN =     1084664.1250              TOTAL IN =        2472.9607

          OUT:                                     OUT:
          ----                                     ----
             STORAGE =     1047176.7500               STORAGE =        2294.2046
       CONSTANT HEAD =           0.0000         CONSTANT HEAD =           0.0000
               WELLS =       36559.7500                 WELLS =         179.3290
       RIVER LEAKAGE =        1080.1012         RIVER LEAKAGE =           0.0000
            RECHARGE =           0.0000              RECHARGE =           0.0000

           TOTAL OUT =     1084816.6250             TOTAL OUT =        2473.5337

            IN - OUT =        -152.5000              IN - OUT =          -0.5730

 PERCENT DISCREPANCY =          -0.01     PERCENT DISCREPANCY =          -0.02






         TIME SUMMARY AT END OF TIME STEP   61 IN STRESS PERIOD    3
                    SECONDS     MINUTES      HOURS       DAYS        YEARS
                    -----------------------------------------------------------
   TIME STEP LENGTH  86400.      1440.0      24.000      1.0000     2.73785E-03
 STRESS PERIOD TIME 5.27040E+06  87840.      1464.0      61.000     0.16701    
         TOTAL TIME 1.39968E+07 2.33280E+05  3888.0      162.00     0.44353    
1

 SOLVING FOR HEAD 

    ------------------------------------------------
       NWT REQUIRED            3 OUTER ITERATIONS 
       AND A TOTAL OF          3 INNER ITERATIONS.
    ------------------------------------------------

 OUTPUT CONTROL FOR STRESS PERIOD    3   TIME STEP   62
    SAVE HEAD FOR ALL LAYERS
    SAVE DRAWDOWN FOR ALL LAYERS
    SAVE BUDGET
    PRINT HEAD FOR ALL LAYERS
    PRINT BUDGET
1
              HEAD IN LAYER   1 AT END OF TIME STEP  62 IN STRESS PERIOD    3
  ---------------------------------------------------------------------------

            1           2           3           4           5           6           7           8           9          10
           11          12          13          14          15          16          17          18          19          20
 ........................................................................................................................
   1    0.000       0.000       0.000       0.000       0.000       7.235       7.228       7.251       7.265       7.277    
        7.297       7.372       7.595       7.816       7.592       7.369       7.313       7.310       0.000       0.000    
   2    0.000       0.000       0.000       0.000       7.291       7.302       7.277       7.328       7.332       7.338    
        7.352       7.408       7.584       7.817       7.555       7.343       7.306       7.311       0.000       0.000    
   3    0.000       0.000       0.000       0.000       7.411       7.503       7.539       7.537       7.516       7.512    
        7.516       7.538       7.610       7.819       7.499       7.280       7.299       7.318       0.000       0.000    
   4    0.000       0.000       0.000       7.595       7.624       7.815       7.813       7.814       7.817       7.817    
        7.817       7.813       7.728       7.822       7.499       7.339       7.324       7.339       0.000       0.000    
   5    0.000       0.000       7.820       7.807       7.822       7.813       7.650       7.574       7.540       7.547    
        7.614       7.815       7.822       7.804       7.483       7.362       7.351       7.369       7.391       0.000    
   6    0.000       7.822       7.823       7.820       7.768       7.579       7.452       7.394       7.371       7.373    
        7.418       7.506       7.528       7.504       7.396       7.360       7.370       7.388       7.397       0.000    
   7    0.000       7.538       7.538       7.530       7.492       7.411       7.354       7.326       7.307       7.292    
        7.325       7.366       7.381       7.371       7.337       7.357       7.384       7.404       0.000       0.000    
   8    0.000       7.390       7.386       7.384       7.371       7.346       7.328       7.314       7.290       7.230    
        7.296       7.328       7.339       7.329       7.279       7.357       7.399       7.424       0.000       0.000    
   9    0.000       0.000       7.341       7.342       7.340       7.336       7.331       7.324       7.311       7.294    
        7.315       7.333       7.343       7.345       7.344       7.383       7.419       7.450       7.484       7.501    
  10    0.000       0.000       7.336       7.337       7.339       7.339       7.337       7.333       7.326       7.320    
        7.329       7.341       7.351       7.360       7.371       7.400       7.431       7.460       7.486       7.501    

 HEAD WILL BE SAVED ON UNIT   51 AT END OF TIME STEP   62, STRESS PERIOD    3

 DRAWDOWN WILL BE SAVED ON UNIT   52 AT END OF TIME STEP   62, STRESS PERIOD    3
1
  VOLUMETRIC BUDGET FOR ENTIRE MODEL AT END OF TIME STEP   62, STRESS PERIOD   3
  ------------------------------------------------------------------------------

     CUMULATIVE VOLUMES      L**3       RATES FOR THIS TIME STEP      L**3/T
     ------------------                 ------------------------

           IN:                                      IN:
           ---                                      ---
             STORAGE =       15017.8340               STORAGE =           9.1823
       CONSTANT HEAD =           0.0000         CONSTANT HEAD =           0.0000
               WELLS =           0.0000                 WELLS =           0.0000
       RIVER LEAKAGE =      989081.1250         RIVER LEAKAGE =        2091.5315
            RECHARGE =       83030.9062              RECHARGE =         364.9565

            TOTAL IN =     1087129.8750              TOTAL IN =        2465.6704

          OUT:                                     OUT:
          ----                                     ----
             STORAGE =     1049463.6250               STORAGE =        2286.9121
       CONSTANT HEAD =           0.0000         CONSTANT HEAD =           0.0000
               WELLS =       36739.0781                 WELLS =         179.3290
       RIVER LEAKAGE =        1080.1012         RIVER LEAKAGE =           0.0000
            RECHARGE =           0.0000              RECHARGE =           0.0000

           TOTAL OUT =     1087282.8750             TOTAL OUT =        2466.2412

            IN - OUT =        -153.0000              IN - OUT =          -0.5708

 PERCENT DISCREPANCY =          -0.01     PERCENT DISCREPANCY =          -0.02






         TIME SUMMARY AT END OF TIME STEP   62 IN STRESS PERIOD    3
                    SECONDS     MINUTES      HOURS       DAYS        YEARS
                    -----------------------------------------------------------
   TIME STEP LENGTH  86400.      1440.0      24.000      1.0000     2.73785E-03
 STRESS PERIOD TIME 5.35680E+06  89280.      1488.0      62.000     0.16975    
         TOTAL TIME 1.40832E+07 2.34720E+05  3912.0      163.00     0.44627    
1

 SOLVING FOR HEAD 

    ------------------------------------------------
       NWT REQUIRED            3 OUTER ITERATIONS 
       AND A TOTAL OF          3 INNER ITERATIONS.
    ------------------------------------------------

 OUTPUT CONTROL FOR STRESS PERIOD    3   TIME STEP   63
    SAVE HEAD FOR ALL LAYERS
    SAVE DRAWDOWN FOR ALL LAYERS
    SAVE BUDGET
    PRINT HEAD FOR ALL LAYERS
    PRINT BUDGET
1
              HEAD IN LAYER   1 AT END OF TIME STEP  63 IN STRESS PERIOD    3
  ---------------------------------------------------------------------------

            1           2           3           4           5           6           7           8           9          10
           11          12          13          14          15          16          17          18          19          20
 ........................................................................................................................
   1    0.000       0.000       0.000       0.000       0.000       7.235       7.228       7.252       7.266       7.277    
        7.298       7.373       7.596       7.816       7.593       7.370       7.313       7.311       0.000       0.000    
   2    0.000       0.000       0.000       0.000       7.292       7.303       7.277       7.329       7.332       7.338    
        7.353       7.409       7.585       7.817       7.555       7.343       7.307       7.312       0.000       0.000    
   3    0.000       0.000       0.000       0.000       7.412       7.504       7.539       7.538       7.517       7.513    
        7.517       7.539       7.611       7.819       7.500       7.281       7.299       7.318       0.000       0.000    
   4    0.000       0.000       0.000       7.597       7.625       7.815       7.813       7.815       7.817       7.817    
        7.817       7.813       7.729       7.822       7.500       7.339       7.325       7.339       0.000       0.000    
   5    0.000       0.000       7.821       7.807       7.822       7.814       7.651       7.575       7.540       7.548    
        7.615       7.815       7.822       7.804       7.484       7.363       7.351       7.369       7.391       0.000    
   6    0.000       7.822       7.823       7.820       7.768       7.580       7.453       7.395       7.372       7.374    
        7.419       7.507       7.528       7.505       7.397       7.360       7.370       7.388       7.397       0.000    
   7    0.000       7.539       7.539       7.531       7.493       7.412       7.355       7.326       7.307       7.293    
        7.326       7.366       7.381       7.371       7.337       7.357       7.385       7.404       0.000       0.000    
   8    0.000       7.391       7.387       7.384       7.371       7.347       7.328       7.314       7.290       7.230    
        7.296       7.328       7.339       7.329       7.279       7.357       7.399       7.424       0.000       0.000    
   9    0.000       0.000       7.341       7.342       7.341       7.336       7.331       7.324       7.311       7.294    
        7.315       7.333       7.343       7.345       7.344       7.383       7.419       7.450       7.484       7.501    
  10    0.000       0.000       7.336       7.337       7.339       7.339       7.337       7.333       7.325       7.320    
        7.329       7.341       7.351       7.360       7.371       7.400       7.431       7.460       7.486       7.501    

 HEAD WILL BE SAVED ON UNIT   51 AT END OF TIME STEP   63, STRESS PERIOD    3

 DRAWDOWN WILL BE SAVED ON UNIT   52 AT END OF TIME STEP   63, STRESS PERIOD    3
1
  VOLUMETRIC BUDGET FOR ENTIRE MODEL AT END OF TIME STEP   63, STRESS PERIOD   3
  ------------------------------------------------------------------------------

     CUMULATIVE VOLUMES      L**3       RATES FOR THIS TIME STEP      L**3/T
     ------------------                 ------------------------

           IN:                                      IN:
           ---                                      ---
             STORAGE =       15026.9111               STORAGE =           9.0774
       CONSTANT HEAD =           0.0000         CONSTANT HEAD =           0.0000
               WELLS =           0.0000                 WELLS =           0.0000
       RIVER LEAKAGE =      991165.5000         RIVER LEAKAGE =        2084.4016
            RECHARGE =       83395.8594              RECHARGE =         364.9565

            TOTAL IN =     1089588.2500              TOTAL IN =        2458.4355

          OUT:                                     OUT:
          ----                                     ----
             STORAGE =     1051743.2500               STORAGE =        2279.6755
       CONSTANT HEAD =           0.0000         CONSTANT HEAD =           0.0000
               WELLS =       36918.4062                 WELLS =         179.3290
       RIVER LEAKAGE =        1080.1012         RIVER LEAKAGE =           0.0000
            RECHARGE =           0.0000              RECHARGE =           0.0000

           TOTAL OUT =     1089741.7500             TOTAL OUT =        2459.0046

            IN - OUT =        -153.5000              IN - OUT =          -0.5691

 PERCENT DISCREPANCY =          -0.01     PERCENT DISCREPANCY =          -0.02






         TIME SUMMARY AT END OF TIME STEP   63 IN STRESS PERIOD    3
                    SECONDS     MINUTES      HOURS       DAYS        YEARS
                    -----------------------------------------------------------
   TIME STEP LENGTH  86400.      1440.0      24.000      1.0000     2.73785E-03
 STRESS PERIOD TIME 5.44320E+06  90720.      1512.0      63.000     0.17248    
         TOTAL TIME 1.41696E+07 2.36160E+05  3936.0      164.00     0.44901    
1

 SOLVING FOR HEAD 

    ------------------------------------------------
       NWT REQUIRED            3 OUTER ITERATIONS 
       AND A TOTAL OF          3 INNER ITERATIONS.
    ------------------------------------------------

 OUTPUT CONTROL FOR STRESS PERIOD    3   TIME STEP   64
    SAVE HEAD FOR ALL LAYERS
    SAVE DRAWDOWN FOR ALL LAYERS
    SAVE BUDGET
    PRINT HEAD FOR ALL LAYERS
    PRINT BUDGET
1
              HEAD IN LAYER   1 AT END OF TIME STEP  64 IN STRESS PERIOD    3
  ---------------------------------------------------------------------------

            1           2           3           4           5           6           7           8           9          10
           11          12          13          14          15          16          17          18          19          20
 ........................................................................................................................
   1    0.000       0.000       0.000       0.000       0.000       7.235       7.229       7.252       7.266       7.278    
        7.298       7.374       7.597       7.816       7.594       7.371       7.314       7.311       0.000       0.000    
   2    0.000       0.000       0.000       0.000       7.293       7.304       7.278       7.330       7.333       7.339    
        7.354       7.410       7.586       7.817       7.556       7.344       7.307       7.312       0.000       0.000    
   3    0.000       0.000       0.000       0.000       7.413       7.505       7.540       7.539       7.518       7.514    
        7.518       7.540       7.612       7.819       7.501       7.282       7.300       7.318       0.000       0.000    
   4    0.000       0.000       0.000       7.598       7.626       7.815       7.813       7.815       7.817       7.817    
        7.817       7.813       7.730       7.822       7.500       7.340       7.325       7.339       0.000       0.000    
   5    0.000       0.000       7.821       7.807       7.822       7.814       7.651       7.576       7.541       7.549    
        7.615       7.815       7.822       7.804       7.484       7.363       7.351       7.369       7.391       0.000    
   6    0.000       7.822       7.823       7.820       7.768       7.581       7.454       7.396       7.373       7.375    
        7.420       7.508       7.529       7.505       7.397       7.360       7.371       7.388       7.397       0.000    
   7    0.000       7.540       7.540       7.531       7.493       7.413       7.355       7.326       7.308       7.293    
        7.326       7.367       7.382       7.372       7.338       7.357       7.385       7.404       0.000       0.000    
   8    0.000       7.392       7.387       7.385       7.372       7.347       7.329       7.314       7.290       7.231    
        7.297       7.328       7.339       7.329       7.280       7.357       7.399       7.424       0.000       0.000    
   9    0.000       0.000       7.342       7.342       7.341       7.336       7.331       7.324       7.311       7.294    
        7.315       7.333       7.343       7.345       7.345       7.383       7.419       7.450       7.484       7.501    
  10    0.000       0.000       7.336       7.337       7.339       7.339       7.338       7.333       7.325       7.320    
        7.329       7.341       7.351       7.360       7.371       7.400       7.431       7.460       7.486       7.501    

 HEAD WILL BE SAVED ON UNIT   51 AT END OF TIME STEP   64, STRESS PERIOD    3

 DRAWDOWN WILL BE SAVED ON UNIT   52 AT END OF TIME STEP   64, STRESS PERIOD    3
1
  VOLUMETRIC BUDGET FOR ENTIRE MODEL AT END OF TIME STEP   64, STRESS PERIOD   3
  ------------------------------------------------------------------------------

     CUMULATIVE VOLUMES      L**3       RATES FOR THIS TIME STEP      L**3/T
     ------------------                 ------------------------

           IN:                                      IN:
           ---                                      ---
             STORAGE =       15035.8848               STORAGE =           8.9735
       CONSTANT HEAD =           0.0000         CONSTANT HEAD =           0.0000
               WELLS =           0.0000                 WELLS =           0.0000
       RIVER LEAKAGE =      993242.8125         RIVER LEAKAGE =        2077.3159
            RECHARGE =       83760.8125              RECHARGE =         364.9565

            TOTAL IN =     1092039.5000              TOTAL IN =        2451.2461

          OUT:                                     OUT:
          ----                                     ----
             STORAGE =     1054015.7500               STORAGE =        2272.4844
       CONSTANT HEAD =           0.0000         CONSTANT HEAD =           0.0000
               WELLS =       37097.7344                 WELLS =         179.3290
       RIVER LEAKAGE =        1080.1012         RIVER LEAKAGE =           0.0000
            RECHARGE =           0.0000              RECHARGE =           0.0000

           TOTAL OUT =     1092193.6250             TOTAL OUT =        2451.8135

            IN - OUT =        -154.1250              IN - OUT =          -0.5674

 PERCENT DISCREPANCY =          -0.01     PERCENT DISCREPANCY =          -0.02






         TIME SUMMARY AT END OF TIME STEP   64 IN STRESS PERIOD    3
                    SECONDS     MINUTES      HOURS       DAYS        YEARS
                    -----------------------------------------------------------
   TIME STEP LENGTH  86400.      1440.0      24.000      1.0000     2.73785E-03
 STRESS PERIOD TIME 5.52960E+06  92160.      1536.0      64.000     0.17522    
         TOTAL TIME 1.42560E+07 2.37600E+05  3960.0      165.00     0.45175    
1

 SOLVING FOR HEAD 

    ------------------------------------------------
       NWT REQUIRED            3 OUTER ITERATIONS 
       AND A TOTAL OF          3 INNER ITERATIONS.
    ------------------------------------------------

 OUTPUT CONTROL FOR STRESS PERIOD    3   TIME STEP   65
    SAVE HEAD FOR ALL LAYERS
    SAVE DRAWDOWN FOR ALL LAYERS
    SAVE BUDGET
    PRINT HEAD FOR ALL LAYERS
    PRINT BUDGET
1
              HEAD IN LAYER   1 AT END OF TIME STEP  65 IN STRESS PERIOD    3
  ---------------------------------------------------------------------------

            1           2           3           4           5           6           7           8           9          10
           11          12          13          14          15          16          17          18          19          20
 ........................................................................................................................
   1    0.000       0.000       0.000       0.000       0.000       7.236       7.229       7.253       7.267       7.278    
        7.299       7.375       7.598       7.816       7.595       7.371       7.314       7.311       0.000       0.000    
   2    0.000       0.000       0.000       0.000       7.294       7.305       7.279       7.331       7.334       7.340    
        7.355       7.412       7.587       7.817       7.557       7.345       7.307       7.312       0.000       0.000    
   3    0.000       0.000       0.000       0.000       7.415       7.506       7.541       7.540       7.519       7.515    
        7.519       7.542       7.614       7.819       7.502       7.282       7.300       7.318       0.000       0.000    
   4    0.000       0.000       0.000       7.600       7.627       7.815       7.813       7.815       7.817       7.817    
        7.817       7.813       7.731       7.822       7.501       7.341       7.325       7.339       0.000       0.000    
   5    0.000       0.000       7.821       7.807       7.823       7.814       7.652       7.577       7.542       7.550    
        7.616       7.815       7.822       7.805       7.485       7.364       7.351       7.369       7.391       0.000    
   6    0.000       7.822       7.823       7.820       7.768       7.581       7.455       7.397       7.374       7.375    
        7.421       7.509       7.530       7.506       7.398       7.360       7.371       7.388       7.397       0.000    
   7    0.000       7.541       7.541       7.532       7.494       7.413       7.356       7.327       7.308       7.294    
        7.327       7.368       7.382       7.372       7.338       7.357       7.385       7.404       0.000       0.000    
   8    0.000       7.393       7.388       7.386       7.372       7.348       7.329       7.314       7.290       7.231    
        7.297       7.329       7.340       7.330       7.280       7.357       7.399       7.424       0.000       0.000    
   9    0.000       0.000       7.342       7.343       7.341       7.337       7.332       7.324       7.311       7.294    
        7.315       7.333       7.343       7.345       7.345       7.383       7.419       7.450       7.484       7.501    
  10    0.000       0.000       7.336       7.337       7.339       7.339       7.338       7.333       7.325       7.320    
        7.329       7.341       7.351       7.360       7.371       7.400       7.431       7.460       7.486       7.501    

 HEAD WILL BE SAVED ON UNIT   51 AT END OF TIME STEP   65, STRESS PERIOD    3

 DRAWDOWN WILL BE SAVED ON UNIT   52 AT END OF TIME STEP   65, STRESS PERIOD    3
1
  VOLUMETRIC BUDGET FOR ENTIRE MODEL AT END OF TIME STEP   65, STRESS PERIOD   3
  ------------------------------------------------------------------------------

     CUMULATIVE VOLUMES      L**3       RATES FOR THIS TIME STEP      L**3/T
     ------------------                 ------------------------

           IN:                                      IN:
           ---                                      ---
             STORAGE =       15044.7529               STORAGE =           8.8685
       CONSTANT HEAD =           0.0000         CONSTANT HEAD =           0.0000
               WELLS =           0.0000                 WELLS =           0.0000
       RIVER LEAKAGE =      995313.0625         RIVER LEAKAGE =        2070.2798
            RECHARGE =       84125.7656              RECHARGE =         364.9565

            TOTAL IN =     1094483.6250              TOTAL IN =        2444.1050

          OUT:                                     OUT:
          ----                                     ----
             STORAGE =     1056281.1250               STORAGE =        2265.3416
       CONSTANT HEAD =           0.0000         CONSTANT HEAD =           0.0000
               WELLS =       37277.0625                 WELLS =         179.3290
       RIVER LEAKAGE =        1080.1012         RIVER LEAKAGE =           0.0000
            RECHARGE =           0.0000              RECHARGE =           0.0000

           TOTAL OUT =     1094638.3750             TOTAL OUT =        2444.6707

            IN - OUT =        -154.7500              IN - OUT =          -0.5657

 PERCENT DISCREPANCY =          -0.01     PERCENT DISCREPANCY =          -0.02






         TIME SUMMARY AT END OF TIME STEP   65 IN STRESS PERIOD    3
                    SECONDS     MINUTES      HOURS       DAYS        YEARS
                    -----------------------------------------------------------
   TIME STEP LENGTH  86400.      1440.0      24.000      1.0000     2.73785E-03
 STRESS PERIOD TIME 5.61600E+06  93600.      1560.0      65.000     0.17796    
         TOTAL TIME 1.43424E+07 2.39040E+05  3984.0      166.00     0.45448    
1

 SOLVING FOR HEAD 

    ------------------------------------------------
       NWT REQUIRED            3 OUTER ITERATIONS 
       AND A TOTAL OF          3 INNER ITERATIONS.
    ------------------------------------------------

 OUTPUT CONTROL FOR STRESS PERIOD    3   TIME STEP   66
    SAVE HEAD FOR ALL LAYERS
    SAVE DRAWDOWN FOR ALL LAYERS
    SAVE BUDGET
    PRINT HEAD FOR ALL LAYERS
    PRINT BUDGET
1
              HEAD IN LAYER   1 AT END OF TIME STEP  66 IN STRESS PERIOD    3
  ---------------------------------------------------------------------------

            1           2           3           4           5           6           7           8           9          10
           11          12          13          14          15          16          17          18          19          20
 ........................................................................................................................
   1    0.000       0.000       0.000       0.000       0.000       7.236       7.230       7.253       7.267       7.278    
        7.300       7.376       7.599       7.816       7.595       7.372       7.314       7.311       0.000       0.000    
   2    0.000       0.000       0.000       0.000       7.294       7.305       7.280       7.332       7.335       7.341    
        7.356       7.413       7.588       7.817       7.558       7.345       7.307       7.312       0.000       0.000    
   3    0.000       0.000       0.000       0.000       7.416       7.506       7.542       7.540       7.520       7.516    
        7.520       7.543       7.615       7.819       7.503       7.283       7.300       7.318       0.000       0.000    
   4    0.000       0.000       0.000       7.601       7.628       7.816       7.813       7.815       7.817       7.817    
        7.817       7.813       7.731       7.822       7.502       7.341       7.325       7.339       0.000       0.000    
   5    0.000       0.000       7.821       7.807       7.823       7.814       7.653       7.578       7.543       7.551    
        7.617       7.815       7.822       7.805       7.485       7.364       7.352       7.369       7.391       0.000    
   6    0.000       7.822       7.823       7.820       7.769       7.582       7.456       7.398       7.374       7.376    
        7.422       7.509       7.531       7.507       7.398       7.361       7.371       7.388       7.397       0.000    
   7    0.000       7.542       7.542       7.533       7.495       7.414       7.356       7.327       7.308       7.294    
        7.327       7.368       7.383       7.373       7.338       7.357       7.385       7.404       0.000       0.000    
   8    0.000       7.394       7.389       7.386       7.373       7.348       7.329       7.314       7.290       7.231    
        7.297       7.329       7.340       7.330       7.280       7.357       7.399       7.424       0.000       0.000    
   9    0.000       0.000       7.342       7.343       7.341       7.337       7.332       7.324       7.311       7.294    
        7.315       7.333       7.343       7.345       7.345       7.383       7.419       7.450       7.484       7.501    
  10    0.000       0.000       7.336       7.337       7.339       7.339       7.338       7.333       7.325       7.320    
        7.329       7.341       7.351       7.360       7.371       7.400       7.431       7.460       7.486       7.501    

 HEAD WILL BE SAVED ON UNIT   51 AT END OF TIME STEP   66, STRESS PERIOD    3

 DRAWDOWN WILL BE SAVED ON UNIT   52 AT END OF TIME STEP   66, STRESS PERIOD    3
1
  VOLUMETRIC BUDGET FOR ENTIRE MODEL AT END OF TIME STEP   66, STRESS PERIOD   3
  ------------------------------------------------------------------------------

     CUMULATIVE VOLUMES      L**3       RATES FOR THIS TIME STEP      L**3/T
     ------------------                 ------------------------

           IN:                                      IN:
           ---                                      ---
             STORAGE =       15053.5156               STORAGE =           8.7628
       CONSTANT HEAD =           0.0000         CONSTANT HEAD =           0.0000
               WELLS =           0.0000                 WELLS =           0.0000
       RIVER LEAKAGE =      997376.3750         RIVER LEAKAGE =        2063.2820
            RECHARGE =       84490.7188              RECHARGE =         364.9565

            TOTAL IN =     1096920.6250              TOTAL IN =        2437.0012

          OUT:                                     OUT:
          ----                                     ----
             STORAGE =     1058539.3750               STORAGE =        2258.2363
       CONSTANT HEAD =           0.0000         CONSTANT HEAD =           0.0000
               WELLS =       37456.3906                 WELLS =         179.3290
       RIVER LEAKAGE =        1080.1012         RIVER LEAKAGE =           0.0000
            RECHARGE =           0.0000              RECHARGE =           0.0000

           TOTAL OUT =     1097075.8750             TOTAL OUT =        2437.5654

            IN - OUT =        -155.2500              IN - OUT =          -0.5642

 PERCENT DISCREPANCY =          -0.01     PERCENT DISCREPANCY =          -0.02






         TIME SUMMARY AT END OF TIME STEP   66 IN STRESS PERIOD    3
                    SECONDS     MINUTES      HOURS       DAYS        YEARS
                    -----------------------------------------------------------
   TIME STEP LENGTH  86400.      1440.0      24.000      1.0000     2.73785E-03
 STRESS PERIOD TIME 5.70240E+06  95040.      1584.0      66.000     0.18070    
         TOTAL TIME 1.44288E+07 2.40480E+05  4008.0      167.00     0.45722    
1

 SOLVING FOR HEAD 

    ------------------------------------------------
       NWT REQUIRED            3 OUTER ITERATIONS 
       AND A TOTAL OF          3 INNER ITERATIONS.
    ------------------------------------------------

 OUTPUT CONTROL FOR STRESS PERIOD    3   TIME STEP   67
    SAVE HEAD FOR ALL LAYERS
    SAVE DRAWDOWN FOR ALL LAYERS
    SAVE BUDGET
    PRINT HEAD FOR ALL LAYERS
    PRINT BUDGET
1
              HEAD IN LAYER   1 AT END OF TIME STEP  67 IN STRESS PERIOD    3
  ---------------------------------------------------------------------------

            1           2           3           4           5           6           7           8           9          10
           11          12          13          14          15          16          17          18          19          20
 ........................................................................................................................
   1    0.000       0.000       0.000       0.000       0.000       7.237       7.230       7.254       7.268       7.279    
        7.300       7.377       7.600       7.816       7.596       7.373       7.314       7.311       0.000       0.000    
   2    0.000       0.000       0.000       0.000       7.295       7.306       7.281       7.332       7.336       7.341    
        7.356       7.414       7.589       7.817       7.559       7.346       7.308       7.312       0.000       0.000    
   3    0.000       0.000       0.000       0.000       7.417       7.507       7.542       7.541       7.520       7.516    
        7.521       7.544       7.616       7.819       7.504       7.284       7.300       7.318       0.000       0.000    
   4    0.000       0.000       0.000       7.602       7.629       7.816       7.813       7.815       7.817       7.817    
        7.817       7.813       7.732       7.822       7.503       7.342       7.325       7.339       0.000       0.000    
   5    0.000       0.000       7.821       7.807       7.823       7.814       7.654       7.579       7.544       7.552    
        7.617       7.815       7.822       7.805       7.486       7.365       7.352       7.369       7.391       0.000    
   6    0.000       7.822       7.823       7.820       7.769       7.583       7.457       7.399       7.375       7.377    
        7.422       7.510       7.531       7.507       7.399       7.361       7.371       7.388       7.397       0.000    
   7    0.000       7.543       7.542       7.534       7.496       7.415       7.357       7.328       7.309       7.295    
        7.328       7.369       7.383       7.373       7.339       7.357       7.385       7.404       0.000       0.000    
   8    0.000       7.395       7.389       7.387       7.373       7.348       7.329       7.315       7.290       7.231    
        7.297       7.329       7.340       7.330       7.280       7.357       7.399       7.424       0.000       0.000    
   9    0.000       0.000       7.342       7.343       7.342       7.337       7.332       7.324       7.311       7.294    
        7.315       7.333       7.343       7.345       7.345       7.383       7.419       7.450       7.484       7.501    
  10    0.000       0.000       7.336       7.338       7.339       7.339       7.338       7.333       7.325       7.320    
        7.329       7.341       7.351       7.360       7.371       7.400       7.431       7.460       7.486       7.501    

 HEAD WILL BE SAVED ON UNIT   51 AT END OF TIME STEP   67, STRESS PERIOD    3

 DRAWDOWN WILL BE SAVED ON UNIT   52 AT END OF TIME STEP   67, STRESS PERIOD    3
1
  VOLUMETRIC BUDGET FOR ENTIRE MODEL AT END OF TIME STEP   67, STRESS PERIOD   3
  ------------------------------------------------------------------------------

     CUMULATIVE VOLUMES      L**3       RATES FOR THIS TIME STEP      L**3/T
     ------------------                 ------------------------

           IN:                                      IN:
           ---                                      ---
             STORAGE =       15062.1719               STORAGE =           8.6562
       CONSTANT HEAD =           0.0000         CONSTANT HEAD =           0.0000
               WELLS =           0.0000                 WELLS =           0.0000
       RIVER LEAKAGE =      999432.7500         RIVER LEAKAGE =        2056.3523
            RECHARGE =       84855.6719              RECHARGE =         364.9565

            TOTAL IN =     1099350.6250              TOTAL IN =        2429.9651

          OUT:                                     OUT:
          ----                                     ----
             STORAGE =     1060790.6250               STORAGE =        2251.1982
       CONSTANT HEAD =           0.0000         CONSTANT HEAD =           0.0000
               WELLS =       37635.7188                 WELLS =         179.3290
       RIVER LEAKAGE =        1080.1012         RIVER LEAKAGE =           0.0000
            RECHARGE =           0.0000              RECHARGE =           0.0000

           TOTAL OUT =     1099506.5000             TOTAL OUT =        2430.5273

            IN - OUT =        -155.8750              IN - OUT =          -0.5623

 PERCENT DISCREPANCY =          -0.01     PERCENT DISCREPANCY =          -0.02






         TIME SUMMARY AT END OF TIME STEP   67 IN STRESS PERIOD    3
                    SECONDS     MINUTES      HOURS       DAYS        YEARS
                    -----------------------------------------------------------
   TIME STEP LENGTH  86400.      1440.0      24.000      1.0000     2.73785E-03
 STRESS PERIOD TIME 5.78880E+06  96480.      1608.0      67.000     0.18344    
         TOTAL TIME 1.45152E+07 2.41920E+05  4032.0      168.00     0.45996    
1

 SOLVING FOR HEAD 

    ------------------------------------------------
       NWT REQUIRED            3 OUTER ITERATIONS 
       AND A TOTAL OF          3 INNER ITERATIONS.
    ------------------------------------------------

 OUTPUT CONTROL FOR STRESS PERIOD    3   TIME STEP   68
    SAVE HEAD FOR ALL LAYERS
    SAVE DRAWDOWN FOR ALL LAYERS
    SAVE BUDGET
    PRINT HEAD FOR ALL LAYERS
    PRINT BUDGET
1
              HEAD IN LAYER   1 AT END OF TIME STEP  68 IN STRESS PERIOD    3
  ---------------------------------------------------------------------------

            1           2           3           4           5           6           7           8           9          10
           11          12          13          14          15          16          17          18          19          20
 ........................................................................................................................
   1    0.000       0.000       0.000       0.000       0.000       7.237       7.231       7.254       7.268       7.279    
        7.301       7.378       7.601       7.816       7.597       7.373       7.315       7.311       0.000       0.000    
   2    0.000       0.000       0.000       0.000       7.296       7.307       7.282       7.333       7.336       7.342    
        7.357       7.415       7.590       7.817       7.559       7.347       7.308       7.312       0.000       0.000    
   3    0.000       0.000       0.000       0.000       7.418       7.508       7.543       7.542       7.521       7.517    
        7.522       7.545       7.617       7.819       7.504       7.285       7.301       7.318       0.000       0.000    
   4    0.000       0.000       0.000       7.604       7.629       7.816       7.813       7.815       7.817       7.817    
        7.817       7.813       7.733       7.822       7.503       7.342       7.326       7.339       0.000       0.000    
   5    0.000       0.000       7.821       7.807       7.823       7.814       7.654       7.579       7.545       7.552    
        7.618       7.815       7.822       7.805       7.487       7.365       7.352       7.369       7.391       0.000    
   6    0.000       7.822       7.823       7.820       7.769       7.584       7.458       7.399       7.376       7.378    
        7.423       7.511       7.532       7.508       7.400       7.361       7.371       7.388       7.397       0.000    
   7    0.000       7.543       7.543       7.534       7.496       7.416       7.358       7.328       7.309       7.295    
        7.328       7.369       7.384       7.374       7.339       7.357       7.385       7.404       0.000       0.000    
   8    0.000       7.396       7.390       7.387       7.374       7.349       7.330       7.315       7.290       7.231    
        7.297       7.329       7.340       7.330       7.280       7.357       7.399       7.424       0.000       0.000    
   9    0.000       0.000       7.343       7.344       7.342       7.337       7.332       7.324       7.311       7.294    
        7.315       7.333       7.343       7.345       7.345       7.383       7.419       7.450       7.484       7.501    
  10    0.000       0.000       7.336       7.338       7.339       7.339       7.338       7.333       7.325       7.320    
        7.329       7.341       7.351       7.360       7.371       7.400       7.431       7.460       7.486       7.501    

 HEAD WILL BE SAVED ON UNIT   51 AT END OF TIME STEP   68, STRESS PERIOD    3

 DRAWDOWN WILL BE SAVED ON UNIT   52 AT END OF TIME STEP   68, STRESS PERIOD    3
1
  VOLUMETRIC BUDGET FOR ENTIRE MODEL AT END OF TIME STEP   68, STRESS PERIOD   3
  ------------------------------------------------------------------------------

     CUMULATIVE VOLUMES      L**3       RATES FOR THIS TIME STEP      L**3/T
     ------------------                 ------------------------

           IN:                                      IN:
           ---                                      ---
             STORAGE =       15070.7207               STORAGE =           8.5487
       CONSTANT HEAD =           0.0000         CONSTANT HEAD =           0.0000
               WELLS =           0.0000                 WELLS =           0.0000
       RIVER LEAKAGE =     1001482.1875         RIVER LEAKAGE =        2049.4639
            RECHARGE =       85220.6250              RECHARGE =         364.9565

            TOTAL IN =     1101773.5000              TOTAL IN =        2422.9692

          OUT:                                     OUT:
          ----                                     ----
             STORAGE =     1063034.8750               STORAGE =        2244.2004
       CONSTANT HEAD =           0.0000         CONSTANT HEAD =           0.0000
               WELLS =       37815.0469                 WELLS =         179.3290
       RIVER LEAKAGE =        1080.1012         RIVER LEAKAGE =           0.0000
            RECHARGE =           0.0000              RECHARGE =           0.0000

           TOTAL OUT =     1101930.0000             TOTAL OUT =        2423.5295

            IN - OUT =        -156.5000              IN - OUT =          -0.5603

 PERCENT DISCREPANCY =          -0.01     PERCENT DISCREPANCY =          -0.02






         TIME SUMMARY AT END OF TIME STEP   68 IN STRESS PERIOD    3
                    SECONDS     MINUTES      HOURS       DAYS        YEARS
                    -----------------------------------------------------------
   TIME STEP LENGTH  86400.      1440.0      24.000      1.0000     2.73785E-03
 STRESS PERIOD TIME 5.87520E+06  97920.      1632.0      68.000     0.18617    
         TOTAL TIME 1.46016E+07 2.43360E+05  4056.0      169.00     0.46270    
1

 SOLVING FOR HEAD 

    ------------------------------------------------
       NWT REQUIRED            3 OUTER ITERATIONS 
       AND A TOTAL OF          3 INNER ITERATIONS.
    ------------------------------------------------

 OUTPUT CONTROL FOR STRESS PERIOD    3   TIME STEP   69
    SAVE HEAD FOR ALL LAYERS
    SAVE DRAWDOWN FOR ALL LAYERS
    SAVE BUDGET
    PRINT HEAD FOR ALL LAYERS
    PRINT BUDGET
1
              HEAD IN LAYER   1 AT END OF TIME STEP  69 IN STRESS PERIOD    3
  ---------------------------------------------------------------------------

            1           2           3           4           5           6           7           8           9          10
           11          12          13          14          15          16          17          18          19          20
 ........................................................................................................................
   1    0.000       0.000       0.000       0.000       0.000       7.238       7.231       7.255       7.269       7.280    
        7.302       7.379       7.602       7.816       7.598       7.374       7.315       7.311       0.000       0.000    
   2    0.000       0.000       0.000       0.000       7.297       7.308       7.283       7.334       7.337       7.343    
        7.358       7.416       7.592       7.817       7.560       7.348       7.308       7.312       0.000       0.000    
   3    0.000       0.000       0.000       0.000       7.419       7.509       7.544       7.543       7.522       7.518    
        7.523       7.546       7.618       7.819       7.505       7.285       7.301       7.318       0.000       0.000    
   4    0.000       0.000       0.000       7.605       7.630       7.816       7.813       7.815       7.817       7.817    
        7.817       7.813       7.733       7.822       7.504       7.343       7.326       7.339       0.000       0.000    
   5    0.000       0.000       7.821       7.808       7.823       7.814       7.655       7.580       7.546       7.553    
        7.619       7.815       7.822       7.805       7.487       7.366       7.352       7.369       7.391       0.000    
   6    0.000       7.822       7.823       7.820       7.769       7.584       7.459       7.400       7.377       7.379    
        7.424       7.511       7.533       7.508       7.400       7.362       7.371       7.388       7.397       0.000    
   7    0.000       7.544       7.544       7.535       7.497       7.416       7.358       7.329       7.310       7.295    
        7.329       7.370       7.384       7.374       7.339       7.358       7.385       7.404       0.000       0.000    
   8    0.000       7.397       7.391       7.388       7.374       7.349       7.330       7.315       7.290       7.232    
        7.297       7.329       7.340       7.331       7.281       7.357       7.399       7.424       0.000       0.000    
   9    0.000       0.000       7.343       7.344       7.342       7.337       7.332       7.324       7.311       7.294    
        7.315       7.333       7.343       7.345       7.345       7.383       7.419       7.450       7.484       7.501    
  10    0.000       0.000       7.336       7.338       7.339       7.339       7.338       7.333       7.325       7.320    
        7.329       7.341       7.351       7.360       7.371       7.400       7.431       7.460       7.486       7.501    

 HEAD WILL BE SAVED ON UNIT   51 AT END OF TIME STEP   69, STRESS PERIOD    3

 DRAWDOWN WILL BE SAVED ON UNIT   52 AT END OF TIME STEP   69, STRESS PERIOD    3
1
  VOLUMETRIC BUDGET FOR ENTIRE MODEL AT END OF TIME STEP   69, STRESS PERIOD   3
  ------------------------------------------------------------------------------

     CUMULATIVE VOLUMES      L**3       RATES FOR THIS TIME STEP      L**3/T
     ------------------                 ------------------------

           IN:                                      IN:
           ---                                      ---
             STORAGE =       15079.1611               STORAGE =           8.4403
       CONSTANT HEAD =           0.0000         CONSTANT HEAD =           0.0000
               WELLS =           0.0000                 WELLS =           0.0000
       RIVER LEAKAGE =     1003524.8125         RIVER LEAKAGE =        2042.6227
            RECHARGE =       85585.5781              RECHARGE =         364.9565

            TOTAL IN =     1104189.6250              TOTAL IN =        2416.0195

          OUT:                                     OUT:
          ----                                     ----
             STORAGE =     1065272.1250               STORAGE =        2237.2493
       CONSTANT HEAD =           0.0000         CONSTANT HEAD =           0.0000
               WELLS =       37994.3750                 WELLS =         179.3290
       RIVER LEAKAGE =        1080.1012         RIVER LEAKAGE =           0.0000
            RECHARGE =           0.0000              RECHARGE =           0.0000

           TOTAL OUT =     1104346.6250             TOTAL OUT =        2416.5784

            IN - OUT =        -157.0000              IN - OUT =          -0.5588

 PERCENT DISCREPANCY =          -0.01     PERCENT DISCREPANCY =          -0.02






         TIME SUMMARY AT END OF TIME STEP   69 IN STRESS PERIOD    3
                    SECONDS     MINUTES      HOURS       DAYS        YEARS
                    -----------------------------------------------------------
   TIME STEP LENGTH  86400.      1440.0      24.000      1.0000     2.73785E-03
 STRESS PERIOD TIME 5.96160E+06  99360.      1656.0      69.000     0.18891    
         TOTAL TIME 1.46880E+07 2.44800E+05  4080.0      170.00     0.46543    
1

 SOLVING FOR HEAD 

    ------------------------------------------------
       NWT REQUIRED            3 OUTER ITERATIONS 
       AND A TOTAL OF          3 INNER ITERATIONS.
    ------------------------------------------------

 OUTPUT CONTROL FOR STRESS PERIOD    3   TIME STEP   70
    SAVE HEAD FOR ALL LAYERS
    SAVE DRAWDOWN FOR ALL LAYERS
    SAVE BUDGET
    PRINT HEAD FOR ALL LAYERS
    PRINT BUDGET
1
              HEAD IN LAYER   1 AT END OF TIME STEP  70 IN STRESS PERIOD    3
  ---------------------------------------------------------------------------

            1           2           3           4           5           6           7           8           9          10
           11          12          13          14          15          16          17          18          19          20
 ........................................................................................................................
   1    0.000       0.000       0.000       0.000       0.000       7.238       7.232       7.255       7.269       7.280    
        7.302       7.380       7.602       7.816       7.598       7.375       7.315       7.311       0.000       0.000    
   2    0.000       0.000       0.000       0.000       7.298       7.308       7.284       7.335       7.338       7.344    
        7.359       7.417       7.593       7.817       7.561       7.348       7.308       7.312       0.000       0.000    
   3    0.000       0.000       0.000       0.000       7.420       7.509       7.544       7.543       7.523       7.519    
        7.524       7.547       7.620       7.819       7.506       7.286       7.301       7.318       0.000       0.000    
   4    0.000       0.000       0.000       7.607       7.631       7.816       7.813       7.815       7.817       7.817    
        7.817       7.813       7.734       7.822       7.505       7.343       7.326       7.339       0.000       0.000    
   5    0.000       0.000       7.821       7.808       7.823       7.814       7.656       7.581       7.547       7.554    
        7.620       7.815       7.822       7.805       7.488       7.366       7.352       7.369       7.391       0.000    
   6    0.000       7.822       7.823       7.820       7.769       7.585       7.460       7.401       7.377       7.380    
        7.425       7.512       7.533       7.509       7.401       7.362       7.371       7.388       7.397       0.000    
   7    0.000       7.545       7.545       7.536       7.498       7.417       7.359       7.329       7.310       7.296    
        7.329       7.370       7.385       7.375       7.340       7.358       7.385       7.404       0.000       0.000    
   8    0.000       7.398       7.392       7.389       7.375       7.350       7.330       7.315       7.291       7.232    
        7.298       7.330       7.341       7.331       7.281       7.357       7.399       7.424       0.000       0.000    
   9    0.000       0.000       7.343       7.344       7.342       7.337       7.332       7.324       7.311       7.294    
        7.315       7.333       7.343       7.345       7.345       7.383       7.419       7.450       7.484       7.501    
  10    0.000       0.000       7.336       7.338       7.339       7.339       7.338       7.333       7.325       7.320    
        7.329       7.341       7.351       7.360       7.371       7.399       7.431       7.460       7.486       7.501    

 HEAD WILL BE SAVED ON UNIT   51 AT END OF TIME STEP   70, STRESS PERIOD    3

 DRAWDOWN WILL BE SAVED ON UNIT   52 AT END OF TIME STEP   70, STRESS PERIOD    3
1
  VOLUMETRIC BUDGET FOR ENTIRE MODEL AT END OF TIME STEP   70, STRESS PERIOD   3
  ------------------------------------------------------------------------------

     CUMULATIVE VOLUMES      L**3       RATES FOR THIS TIME STEP      L**3/T
     ------------------                 ------------------------

           IN:                                      IN:
           ---                                      ---
             STORAGE =       15087.4922               STORAGE =           8.3311
       CONSTANT HEAD =           0.0000         CONSTANT HEAD =           0.0000
               WELLS =           0.0000                 WELLS =           0.0000
       RIVER LEAKAGE =     1005560.6250         RIVER LEAKAGE =        2035.8267
            RECHARGE =       85950.5312              RECHARGE =         364.9565

            TOTAL IN =     1106598.6250              TOTAL IN =        2409.1143

          OUT:                                     OUT:
          ----                                     ----
             STORAGE =     1067502.5000               STORAGE =        2230.3423
       CONSTANT HEAD =           0.0000         CONSTANT HEAD =           0.0000
               WELLS =       38173.7031                 WELLS =         179.3290
       RIVER LEAKAGE =        1080.1012         RIVER LEAKAGE =           0.0000
            RECHARGE =           0.0000              RECHARGE =           0.0000

           TOTAL OUT =     1106756.3750             TOTAL OUT =        2409.6714

            IN - OUT =        -157.7500              IN - OUT =          -0.5571

 PERCENT DISCREPANCY =          -0.01     PERCENT DISCREPANCY =          -0.02






         TIME SUMMARY AT END OF TIME STEP   70 IN STRESS PERIOD    3
                    SECONDS     MINUTES      HOURS       DAYS        YEARS
                    -----------------------------------------------------------
   TIME STEP LENGTH  86400.      1440.0      24.000      1.0000     2.73785E-03
 STRESS PERIOD TIME 6.04800E+06 1.00800E+05  1680.0      70.000     0.19165    
         TOTAL TIME 1.47744E+07 2.46240E+05  4104.0      171.00     0.46817    
1

 SOLVING FOR HEAD 

    ------------------------------------------------
       NWT REQUIRED            3 OUTER ITERATIONS 
       AND A TOTAL OF          3 INNER ITERATIONS.
    ------------------------------------------------

 OUTPUT CONTROL FOR STRESS PERIOD    3   TIME STEP   71
    SAVE HEAD FOR ALL LAYERS
    SAVE DRAWDOWN FOR ALL LAYERS
    SAVE BUDGET
    PRINT HEAD FOR ALL LAYERS
    PRINT BUDGET
1
              HEAD IN LAYER   1 AT END OF TIME STEP  71 IN STRESS PERIOD    3
  ---------------------------------------------------------------------------

            1           2           3           4           5           6           7           8           9          10
           11          12          13          14          15          16          17          18          19          20
 ........................................................................................................................
   1    0.000       0.000       0.000       0.000       0.000       7.239       7.232       7.256       7.269       7.281    
        7.303       7.381       7.603       7.816       7.599       7.376       7.316       7.311       0.000       0.000    
   2    0.000       0.000       0.000       0.000       7.299       7.309       7.284       7.336       7.339       7.344    
        7.360       7.419       7.594       7.817       7.562       7.349       7.309       7.312       0.000       0.000    
   3    0.000       0.000       0.000       0.000       7.421       7.510       7.545       7.544       7.524       7.520    
        7.525       7.548       7.621       7.819       7.507       7.287       7.301       7.318       0.000       0.000    
   4    0.000       0.000       0.000       7.608       7.632       7.816       7.813       7.815       7.817       7.817    
        7.817       7.813       7.735       7.822       7.505       7.344       7.326       7.339       0.000       0.000    
   5    0.000       0.000       7.821       7.808       7.823       7.814       7.656       7.582       7.548       7.555    
        7.620       7.815       7.822       7.805       7.489       7.366       7.352       7.369       7.391       0.000    
   6    0.000       7.822       7.823       7.820       7.769       7.586       7.461       7.402       7.378       7.380    
        7.426       7.513       7.534       7.510       7.401       7.362       7.371       7.388       7.397       0.000    
   7    0.000       7.546       7.545       7.537       7.499       7.418       7.360       7.330       7.310       7.296    
        7.330       7.371       7.386       7.375       7.340       7.358       7.385       7.404       0.000       0.000    
   8    0.000       7.399       7.392       7.389       7.376       7.350       7.331       7.315       7.291       7.232    
        7.298       7.330       7.341       7.331       7.281       7.357       7.399       7.424       0.000       0.000    
   9    0.000       0.000       7.344       7.344       7.342       7.337       7.332       7.324       7.311       7.294    
        7.315       7.333       7.343       7.346       7.345       7.383       7.419       7.450       7.484       7.501    
  10    0.000       0.000       7.336       7.338       7.339       7.339       7.338       7.333       7.325       7.320    
        7.329       7.341       7.351       7.360       7.371       7.399       7.431       7.460       7.486       7.501    

 HEAD WILL BE SAVED ON UNIT   51 AT END OF TIME STEP   71, STRESS PERIOD    3

 DRAWDOWN WILL BE SAVED ON UNIT   52 AT END OF TIME STEP   71, STRESS PERIOD    3
1
  VOLUMETRIC BUDGET FOR ENTIRE MODEL AT END OF TIME STEP   71, STRESS PERIOD   3
  ------------------------------------------------------------------------------

     CUMULATIVE VOLUMES      L**3       RATES FOR THIS TIME STEP      L**3/T
     ------------------                 ------------------------

           IN:                                      IN:
           ---                                      ---
             STORAGE =       15095.7129               STORAGE =           8.2207
       CONSTANT HEAD =           0.0000         CONSTANT HEAD =           0.0000
               WELLS =           0.0000                 WELLS =           0.0000
       RIVER LEAKAGE =     1007589.6875         RIVER LEAKAGE =        2029.0865
            RECHARGE =       86315.4844              RECHARGE =         364.9565

            TOTAL IN =     1109000.8750              TOTAL IN =        2402.2637

          OUT:                                     OUT:
          ----                                     ----
             STORAGE =     1069726.0000               STORAGE =        2223.4900
       CONSTANT HEAD =           0.0000         CONSTANT HEAD =           0.0000
               WELLS =       38353.0312                 WELLS =         179.3290
       RIVER LEAKAGE =        1080.1012         RIVER LEAKAGE =           0.0000
            RECHARGE =           0.0000              RECHARGE =           0.0000

           TOTAL OUT =     1109159.1250             TOTAL OUT =        2402.8191

            IN - OUT =        -158.2500              IN - OUT =          -0.5554

 PERCENT DISCREPANCY =          -0.01     PERCENT DISCREPANCY =          -0.02






         TIME SUMMARY AT END OF TIME STEP   71 IN STRESS PERIOD    3
                    SECONDS     MINUTES      HOURS       DAYS        YEARS
                    -----------------------------------------------------------
   TIME STEP LENGTH  86400.      1440.0      24.000      1.0000     2.73785E-03
 STRESS PERIOD TIME 6.13440E+06 1.02240E+05  1704.0      71.000     0.19439    
         TOTAL TIME 1.48608E+07 2.47680E+05  4128.0      172.00     0.47091    
1

 SOLVING FOR HEAD 

    ------------------------------------------------
       NWT REQUIRED            3 OUTER ITERATIONS 
       AND A TOTAL OF          3 INNER ITERATIONS.
    ------------------------------------------------

 OUTPUT CONTROL FOR STRESS PERIOD    3   TIME STEP   72
    SAVE HEAD FOR ALL LAYERS
    SAVE DRAWDOWN FOR ALL LAYERS
    SAVE BUDGET
    PRINT HEAD FOR ALL LAYERS
    PRINT BUDGET
1
              HEAD IN LAYER   1 AT END OF TIME STEP  72 IN STRESS PERIOD    3
  ---------------------------------------------------------------------------

            1           2           3           4           5           6           7           8           9          10
           11          12          13          14          15          16          17          18          19          20
 ........................................................................................................................
   1    0.000       0.000       0.000       0.000       0.000       7.239       7.233       7.256       7.270       7.281    
        7.304       7.382       7.604       7.816       7.600       7.376       7.316       7.311       0.000       0.000    
   2    0.000       0.000       0.000       0.000       7.299       7.310       7.285       7.336       7.339       7.345    
        7.361       7.420       7.595       7.817       7.562       7.350       7.309       7.312       0.000       0.000    
   3    0.000       0.000       0.000       0.000       7.422       7.511       7.546       7.545       7.524       7.521    
        7.526       7.549       7.622       7.819       7.508       7.287       7.302       7.318       0.000       0.000    
   4    0.000       0.000       0.000       7.609       7.633       7.816       7.814       7.815       7.817       7.817    
        7.817       7.813       7.736       7.822       7.506       7.344       7.326       7.339       0.000       0.000    
   5    0.000       0.000       7.822       7.808       7.823       7.814       7.657       7.583       7.548       7.556    
        7.621       7.815       7.822       7.805       7.489       7.367       7.352       7.369       7.391       0.000    
   6    0.000       7.822       7.823       7.820       7.770       7.586       7.462       7.403       7.379       7.381    
        7.427       7.513       7.534       7.510       7.402       7.362       7.371       7.388       7.397       0.000    
   7    0.000       7.547       7.546       7.537       7.499       7.419       7.360       7.330       7.311       7.297    
        7.330       7.371       7.386       7.376       7.340       7.358       7.385       7.404       0.000       0.000    
   8    0.000       7.399       7.393       7.390       7.376       7.351       7.331       7.315       7.291       7.232    
        7.298       7.330       7.341       7.331       7.281       7.357       7.399       7.424       0.000       0.000    
   9    0.000       0.000       7.344       7.345       7.343       7.338       7.332       7.324       7.311       7.294    
        7.315       7.333       7.343       7.346       7.345       7.383       7.419       7.450       7.484       7.501    
  10    0.000       0.000       7.337       7.338       7.339       7.339       7.338       7.333       7.325       7.320    
        7.329       7.341       7.351       7.360       7.371       7.399       7.431       7.460       7.486       7.501    

 HEAD WILL BE SAVED ON UNIT   51 AT END OF TIME STEP   72, STRESS PERIOD    3

 DRAWDOWN WILL BE SAVED ON UNIT   52 AT END OF TIME STEP   72, STRESS PERIOD    3
1
  VOLUMETRIC BUDGET FOR ENTIRE MODEL AT END OF TIME STEP   72, STRESS PERIOD   3
  ------------------------------------------------------------------------------

     CUMULATIVE VOLUMES      L**3       RATES FOR THIS TIME STEP      L**3/T
     ------------------                 ------------------------

           IN:                                      IN:
           ---                                      ---
             STORAGE =       15103.8223               STORAGE =           8.1096
       CONSTANT HEAD =           0.0000         CONSTANT HEAD =           0.0000
               WELLS =           0.0000                 WELLS =           0.0000
       RIVER LEAKAGE =     1009612.0625         RIVER LEAKAGE =        2022.3899
            RECHARGE =       86680.4375              RECHARGE =         364.9565

            TOTAL IN =     1111396.2500              TOTAL IN =        2395.4561

          OUT:                                     OUT:
          ----                                     ----
             STORAGE =     1071942.6250               STORAGE =        2216.6804
       CONSTANT HEAD =           0.0000         CONSTANT HEAD =           0.0000
               WELLS =       38532.3594                 WELLS =         179.3290
       RIVER LEAKAGE =        1080.1012         RIVER LEAKAGE =           0.0000
            RECHARGE =           0.0000              RECHARGE =           0.0000

           TOTAL OUT =     1111555.1250             TOTAL OUT =        2396.0095

            IN - OUT =        -158.8750              IN - OUT =          -0.5535

 PERCENT DISCREPANCY =          -0.01     PERCENT DISCREPANCY =          -0.02






         TIME SUMMARY AT END OF TIME STEP   72 IN STRESS PERIOD    3
                    SECONDS     MINUTES      HOURS       DAYS        YEARS
                    -----------------------------------------------------------
   TIME STEP LENGTH  86400.      1440.0      24.000      1.0000     2.73785E-03
 STRESS PERIOD TIME 6.22080E+06 1.03680E+05  1728.0      72.000     0.19713    
         TOTAL TIME 1.49472E+07 2.49120E+05  4152.0      173.00     0.47365    
1

 SOLVING FOR HEAD 

    ------------------------------------------------
       NWT REQUIRED            3 OUTER ITERATIONS 
       AND A TOTAL OF          3 INNER ITERATIONS.
    ------------------------------------------------

 OUTPUT CONTROL FOR STRESS PERIOD    3   TIME STEP   73
    SAVE HEAD FOR ALL LAYERS
    SAVE DRAWDOWN FOR ALL LAYERS
    SAVE BUDGET
    PRINT HEAD FOR ALL LAYERS
    PRINT BUDGET
1
              HEAD IN LAYER   1 AT END OF TIME STEP  73 IN STRESS PERIOD    3
  ---------------------------------------------------------------------------

            1           2           3           4           5           6           7           8           9          10
           11          12          13          14          15          16          17          18          19          20
 ........................................................................................................................
   1    0.000       0.000       0.000       0.000       0.000       7.239       7.233       7.257       7.270       7.282    
        7.304       7.383       7.605       7.816       7.600       7.377       7.316       7.311       0.000       0.000    
   2    0.000       0.000       0.000       0.000       7.300       7.311       7.286       7.337       7.340       7.346    
        7.362       7.421       7.596       7.817       7.563       7.350       7.309       7.312       0.000       0.000    
   3    0.000       0.000       0.000       0.000       7.423       7.512       7.546       7.546       7.525       7.521    
        7.526       7.550       7.623       7.819       7.509       7.288       7.302       7.319       0.000       0.000    
   4    0.000       0.000       0.000       7.611       7.634       7.816       7.814       7.815       7.818       7.817    
        7.817       7.813       7.736       7.822       7.507       7.345       7.327       7.339       0.000       0.000    
   5    0.000       0.000       7.822       7.808       7.823       7.814       7.657       7.584       7.549       7.557    
        7.622       7.815       7.822       7.805       7.490       7.367       7.353       7.369       7.391       0.000    
   6    0.000       7.822       7.823       7.820       7.770       7.587       7.463       7.404       7.380       7.382    
        7.428       7.514       7.535       7.511       7.402       7.363       7.371       7.388       7.397       0.000    
   7    0.000       7.547       7.547       7.538       7.500       7.420       7.361       7.331       7.311       7.297    
        7.331       7.372       7.387       7.376       7.341       7.358       7.385       7.404       0.000       0.000    
   8    0.000       7.400       7.394       7.390       7.377       7.351       7.331       7.316       7.291       7.232    
        7.298       7.330       7.341       7.331       7.281       7.357       7.399       7.424       0.000       0.000    
   9    0.000       0.000       7.344       7.345       7.343       7.338       7.332       7.324       7.311       7.294    
        7.315       7.333       7.343       7.346       7.345       7.383       7.419       7.450       7.484       7.501    
  10    0.000       0.000       7.337       7.338       7.339       7.339       7.338       7.333       7.325       7.320    
        7.329       7.341       7.351       7.360       7.371       7.399       7.431       7.460       7.486       7.501    

 HEAD WILL BE SAVED ON UNIT   51 AT END OF TIME STEP   73, STRESS PERIOD    3

 DRAWDOWN WILL BE SAVED ON UNIT   52 AT END OF TIME STEP   73, STRESS PERIOD    3
1
  VOLUMETRIC BUDGET FOR ENTIRE MODEL AT END OF TIME STEP   73, STRESS PERIOD   3
  ------------------------------------------------------------------------------

     CUMULATIVE VOLUMES      L**3       RATES FOR THIS TIME STEP      L**3/T
     ------------------                 ------------------------

           IN:                                      IN:
           ---                                      ---
             STORAGE =       15111.8203               STORAGE =           7.9976
       CONSTANT HEAD =           0.0000         CONSTANT HEAD =           0.0000
               WELLS =           0.0000                 WELLS =           0.0000
       RIVER LEAKAGE =     1011627.8125         RIVER LEAKAGE =        2015.7339
            RECHARGE =       87045.3906              RECHARGE =         364.9565

            TOTAL IN =     1113785.0000              TOTAL IN =        2388.6880

          OUT:                                     OUT:
          ----                                     ----
             STORAGE =     1074152.5000               STORAGE =        2209.9109
       CONSTANT HEAD =           0.0000         CONSTANT HEAD =           0.0000
               WELLS =       38711.6875                 WELLS =         179.3290
       RIVER LEAKAGE =        1080.1012         RIVER LEAKAGE =           0.0000
            RECHARGE =           0.0000              RECHARGE =           0.0000

           TOTAL OUT =     1113944.3750             TOTAL OUT =        2389.2400

            IN - OUT =        -159.3750              IN - OUT =          -0.5520

 PERCENT DISCREPANCY =          -0.01     PERCENT DISCREPANCY =          -0.02






         TIME SUMMARY AT END OF TIME STEP   73 IN STRESS PERIOD    3
                    SECONDS     MINUTES      HOURS       DAYS        YEARS
                    -----------------------------------------------------------
   TIME STEP LENGTH  86400.      1440.0      24.000      1.0000     2.73785E-03
 STRESS PERIOD TIME 6.30720E+06 1.05120E+05  1752.0      73.000     0.19986    
         TOTAL TIME 1.50336E+07 2.50560E+05  4176.0      174.00     0.47639    
1

 SOLVING FOR HEAD 

    ------------------------------------------------
       NWT REQUIRED            3 OUTER ITERATIONS 
       AND A TOTAL OF          3 INNER ITERATIONS.
    ------------------------------------------------

 OUTPUT CONTROL FOR STRESS PERIOD    3   TIME STEP   74
    SAVE HEAD FOR ALL LAYERS
    SAVE DRAWDOWN FOR ALL LAYERS
    SAVE BUDGET
    PRINT HEAD FOR ALL LAYERS
    PRINT BUDGET
1
              HEAD IN LAYER   1 AT END OF TIME STEP  74 IN STRESS PERIOD    3
  ---------------------------------------------------------------------------

            1           2           3           4           5           6           7           8           9          10
           11          12          13          14          15          16          17          18          19          20
 ........................................................................................................................
   1    0.000       0.000       0.000       0.000       0.000       7.240       7.234       7.257       7.271       7.282    
        7.305       7.384       7.606       7.816       7.601       7.378       7.316       7.311       0.000       0.000    
   2    0.000       0.000       0.000       0.000       7.301       7.311       7.287       7.338       7.341       7.347    
        7.363       7.422       7.597       7.817       7.564       7.351       7.310       7.312       0.000       0.000    
   3    0.000       0.000       0.000       0.000       7.424       7.512       7.547       7.546       7.526       7.522    
        7.527       7.551       7.624       7.819       7.509       7.289       7.302       7.319       0.000       0.000    
   4    0.000       0.000       0.000       7.612       7.635       7.816       7.814       7.815       7.818       7.817    
        7.817       7.813       7.737       7.822       7.508       7.346       7.327       7.339       0.000       0.000    
   5    0.000       0.000       7.822       7.808       7.823       7.814       7.658       7.584       7.550       7.558    
        7.622       7.815       7.822       7.805       7.490       7.368       7.353       7.369       7.391       0.000    
   6    0.000       7.822       7.823       7.820       7.770       7.588       7.464       7.405       7.381       7.383    
        7.428       7.515       7.536       7.511       7.403       7.363       7.371       7.388       7.397       0.000    
   7    0.000       7.548       7.548       7.539       7.501       7.420       7.361       7.331       7.311       7.297    
        7.331       7.372       7.387       7.377       7.341       7.358       7.385       7.404       0.000       0.000    
   8    0.000       7.401       7.394       7.391       7.377       7.351       7.331       7.316       7.291       7.233    
        7.298       7.331       7.342       7.332       7.282       7.357       7.399       7.424       0.000       0.000    
   9    0.000       0.000       7.345       7.345       7.343       7.338       7.332       7.324       7.311       7.294    
        7.315       7.333       7.343       7.346       7.345       7.383       7.419       7.450       7.484       7.501    
  10    0.000       0.000       7.337       7.338       7.340       7.339       7.338       7.333       7.325       7.320    
        7.329       7.341       7.351       7.360       7.371       7.399       7.431       7.460       7.486       7.501    

 HEAD WILL BE SAVED ON UNIT   51 AT END OF TIME STEP   74, STRESS PERIOD    3

 DRAWDOWN WILL BE SAVED ON UNIT   52 AT END OF TIME STEP   74, STRESS PERIOD    3
1
  VOLUMETRIC BUDGET FOR ENTIRE MODEL AT END OF TIME STEP   74, STRESS PERIOD   3
  ------------------------------------------------------------------------------

     CUMULATIVE VOLUMES      L**3       RATES FOR THIS TIME STEP      L**3/T
     ------------------                 ------------------------

           IN:                                      IN:
           ---                                      ---
             STORAGE =       15119.7061               STORAGE =           7.8853
       CONSTANT HEAD =           0.0000         CONSTANT HEAD =           0.0000
               WELLS =           0.0000                 WELLS =           0.0000
       RIVER LEAKAGE =     1013636.9375         RIVER LEAKAGE =        2009.1266
            RECHARGE =       87410.3438              RECHARGE =         364.9565

            TOTAL IN =     1116167.0000              TOTAL IN =        2381.9683

          OUT:                                     OUT:
          ----                                     ----
             STORAGE =     1076355.7500               STORAGE =        2203.1895
       CONSTANT HEAD =           0.0000         CONSTANT HEAD =           0.0000
               WELLS =       38891.0156                 WELLS =         179.3290
       RIVER LEAKAGE =        1080.1012         RIVER LEAKAGE =           0.0000
            RECHARGE =           0.0000              RECHARGE =           0.0000

           TOTAL OUT =     1116326.8750             TOTAL OUT =        2382.5186

            IN - OUT =        -159.8750              IN - OUT =          -0.5503

 PERCENT DISCREPANCY =          -0.01     PERCENT DISCREPANCY =          -0.02






         TIME SUMMARY AT END OF TIME STEP   74 IN STRESS PERIOD    3
                    SECONDS     MINUTES      HOURS       DAYS        YEARS
                    -----------------------------------------------------------
   TIME STEP LENGTH  86400.      1440.0      24.000      1.0000     2.73785E-03
 STRESS PERIOD TIME 6.39360E+06 1.06560E+05  1776.0      74.000     0.20260    
         TOTAL TIME 1.51200E+07 2.52000E+05  4200.0      175.00     0.47912    
1

 SOLVING FOR HEAD 

    ------------------------------------------------
       NWT REQUIRED            3 OUTER ITERATIONS 
       AND A TOTAL OF          3 INNER ITERATIONS.
    ------------------------------------------------

 OUTPUT CONTROL FOR STRESS PERIOD    3   TIME STEP   75
    SAVE HEAD FOR ALL LAYERS
    SAVE DRAWDOWN FOR ALL LAYERS
    SAVE BUDGET
    PRINT HEAD FOR ALL LAYERS
    PRINT BUDGET
1
              HEAD IN LAYER   1 AT END OF TIME STEP  75 IN STRESS PERIOD    3
  ---------------------------------------------------------------------------

            1           2           3           4           5           6           7           8           9          10
           11          12          13          14          15          16          17          18          19          20
 ........................................................................................................................
   1    0.000       0.000       0.000       0.000       0.000       7.240       7.234       7.258       7.271       7.283    
        7.306       7.385       7.607       7.816       7.602       7.378       7.317       7.312       0.000       0.000    
   2    0.000       0.000       0.000       0.000       7.302       7.312       7.288       7.339       7.342       7.347    
        7.364       7.423       7.598       7.818       7.565       7.352       7.310       7.312       0.000       0.000    
   3    0.000       0.000       0.000       0.000       7.425       7.513       7.548       7.547       7.527       7.523    
        7.528       7.553       7.625       7.819       7.510       7.290       7.303       7.319       0.000       0.000    
   4    0.000       0.000       0.000       7.613       7.635       7.816       7.814       7.815       7.818       7.817    
        7.817       7.813       7.738       7.822       7.508       7.346       7.327       7.339       0.000       0.000    
   5    0.000       0.000       7.822       7.808       7.823       7.814       7.659       7.585       7.551       7.558    
        7.623       7.815       7.822       7.805       7.491       7.368       7.353       7.369       7.391       0.000    
   6    0.000       7.822       7.824       7.820       7.770       7.589       7.465       7.405       7.381       7.384    
        7.429       7.515       7.536       7.512       7.404       7.363       7.371       7.388       7.397       0.000    
   7    0.000       7.549       7.548       7.539       7.501       7.421       7.362       7.331       7.312       7.298    
        7.332       7.373       7.388       7.377       7.341       7.358       7.385       7.404       0.000       0.000    
   8    0.000       7.402       7.395       7.392       7.378       7.352       7.332       7.316       7.291       7.233    
        7.299       7.331       7.342       7.332       7.282       7.357       7.399       7.424       0.000       0.000    
   9    0.000       0.000       7.345       7.345       7.343       7.338       7.332       7.324       7.311       7.294    
        7.315       7.333       7.343       7.346       7.345       7.383       7.419       7.450       7.484       7.501    
  10    0.000       0.000       7.337       7.338       7.340       7.340       7.338       7.333       7.325       7.320    
        7.329       7.341       7.351       7.360       7.371       7.399       7.431       7.460       7.486       7.501    

 HEAD WILL BE SAVED ON UNIT   51 AT END OF TIME STEP   75, STRESS PERIOD    3

 DRAWDOWN WILL BE SAVED ON UNIT   52 AT END OF TIME STEP   75, STRESS PERIOD    3
1
  VOLUMETRIC BUDGET FOR ENTIRE MODEL AT END OF TIME STEP   75, STRESS PERIOD   3
  ------------------------------------------------------------------------------

     CUMULATIVE VOLUMES      L**3       RATES FOR THIS TIME STEP      L**3/T
     ------------------                 ------------------------

           IN:                                      IN:
           ---                                      ---
             STORAGE =       15127.4775               STORAGE =           7.7716
       CONSTANT HEAD =           0.0000         CONSTANT HEAD =           0.0000
               WELLS =           0.0000                 WELLS =           0.0000
       RIVER LEAKAGE =     1015639.5000         RIVER LEAKAGE =        2002.5710
            RECHARGE =       87775.2969              RECHARGE =         364.9565

            TOTAL IN =     1118542.2500              TOTAL IN =        2375.2991

          OUT:                                     OUT:
          ----                                     ----
             STORAGE =     1078552.2500               STORAGE =        2196.5188
       CONSTANT HEAD =           0.0000         CONSTANT HEAD =           0.0000
               WELLS =       39070.3438                 WELLS =         179.3290
       RIVER LEAKAGE =        1080.1012         RIVER LEAKAGE =           0.0000
            RECHARGE =           0.0000              RECHARGE =           0.0000

           TOTAL OUT =     1118702.7500             TOTAL OUT =        2375.8479

            IN - OUT =        -160.5000              IN - OUT =          -0.5488

 PERCENT DISCREPANCY =          -0.01     PERCENT DISCREPANCY =          -0.02






         TIME SUMMARY AT END OF TIME STEP   75 IN STRESS PERIOD    3
                    SECONDS     MINUTES      HOURS       DAYS        YEARS
                    -----------------------------------------------------------
   TIME STEP LENGTH  86400.      1440.0      24.000      1.0000     2.73785E-03
 STRESS PERIOD TIME 6.48000E+06 1.08000E+05  1800.0      75.000     0.20534    
         TOTAL TIME 1.52064E+07 2.53440E+05  4224.0      176.00     0.48186    
1

 SOLVING FOR HEAD 

    ------------------------------------------------
       NWT REQUIRED            3 OUTER ITERATIONS 
       AND A TOTAL OF          3 INNER ITERATIONS.
    ------------------------------------------------

 OUTPUT CONTROL FOR STRESS PERIOD    3   TIME STEP   76
    SAVE HEAD FOR ALL LAYERS
    SAVE DRAWDOWN FOR ALL LAYERS
    SAVE BUDGET
    PRINT HEAD FOR ALL LAYERS
    PRINT BUDGET
1
              HEAD IN LAYER   1 AT END OF TIME STEP  76 IN STRESS PERIOD    3
  ---------------------------------------------------------------------------

            1           2           3           4           5           6           7           8           9          10
           11          12          13          14          15          16          17          18          19          20
 ........................................................................................................................
   1    0.000       0.000       0.000       0.000       0.000       7.241       7.235       7.258       7.272       7.283    
        7.306       7.386       7.607       7.816       7.603       7.379       7.317       7.312       0.000       0.000    
   2    0.000       0.000       0.000       0.000       7.303       7.313       7.289       7.340       7.342       7.348    
        7.365       7.424       7.599       7.818       7.565       7.352       7.310       7.313       0.000       0.000    
   3    0.000       0.000       0.000       0.000       7.426       7.514       7.548       7.548       7.528       7.524    
        7.529       7.554       7.627       7.819       7.511       7.290       7.303       7.319       0.000       0.000    
   4    0.000       0.000       0.000       7.615       7.636       7.816       7.814       7.815       7.818       7.817    
        7.817       7.814       7.738       7.822       7.509       7.347       7.327       7.339       0.000       0.000    
   5    0.000       0.000       7.822       7.808       7.823       7.814       7.659       7.586       7.552       7.559    
        7.624       7.815       7.822       7.805       7.492       7.369       7.353       7.369       7.391       0.000    
   6    0.000       7.822       7.824       7.820       7.770       7.589       7.465       7.406       7.382       7.384    
        7.430       7.516       7.537       7.513       7.404       7.364       7.371       7.388       7.397       0.000    
   7    0.000       7.550       7.549       7.540       7.502       7.422       7.363       7.332       7.312       7.298    
        7.332       7.373       7.388       7.378       7.342       7.358       7.385       7.404       0.000       0.000    
   8    0.000       7.403       7.396       7.392       7.378       7.352       7.332       7.316       7.291       7.233    
        7.299       7.331       7.342       7.332       7.282       7.358       7.399       7.424       0.000       0.000    
   9    0.000       0.000       7.345       7.346       7.344       7.338       7.332       7.324       7.311       7.294    
        7.315       7.333       7.343       7.346       7.345       7.383       7.419       7.450       7.484       7.501    
  10    0.000       0.000       7.337       7.338       7.340       7.340       7.338       7.333       7.325       7.320    
        7.329       7.341       7.351       7.360       7.371       7.399       7.431       7.460       7.486       7.501    

 HEAD WILL BE SAVED ON UNIT   51 AT END OF TIME STEP   76, STRESS PERIOD    3

 DRAWDOWN WILL BE SAVED ON UNIT   52 AT END OF TIME STEP   76, STRESS PERIOD    3
1
  VOLUMETRIC BUDGET FOR ENTIRE MODEL AT END OF TIME STEP   76, STRESS PERIOD   3
  ------------------------------------------------------------------------------

     CUMULATIVE VOLUMES      L**3       RATES FOR THIS TIME STEP      L**3/T
     ------------------                 ------------------------

           IN:                                      IN:
           ---                                      ---
             STORAGE =       15135.1348               STORAGE =           7.6577
       CONSTANT HEAD =           0.0000         CONSTANT HEAD =           0.0000
               WELLS =           0.0000                 WELLS =           0.0000
       RIVER LEAKAGE =     1017635.5625         RIVER LEAKAGE =        1996.0618
            RECHARGE =       88140.2500              RECHARGE =         364.9565

            TOTAL IN =     1120911.0000              TOTAL IN =        2368.6760

          OUT:                                     OUT:
          ----                                     ----
             STORAGE =     1080742.1250               STORAGE =        2189.8938
       CONSTANT HEAD =           0.0000         CONSTANT HEAD =           0.0000
               WELLS =       39249.6719                 WELLS =         179.3290
       RIVER LEAKAGE =        1080.1012         RIVER LEAKAGE =           0.0000
            RECHARGE =           0.0000              RECHARGE =           0.0000

           TOTAL OUT =     1121071.8750             TOTAL OUT =        2369.2229

            IN - OUT =        -160.8750              IN - OUT =          -0.5469

 PERCENT DISCREPANCY =          -0.01     PERCENT DISCREPANCY =          -0.02






         TIME SUMMARY AT END OF TIME STEP   76 IN STRESS PERIOD    3
                    SECONDS     MINUTES      HOURS       DAYS        YEARS
                    -----------------------------------------------------------
   TIME STEP LENGTH  86400.      1440.0      24.000      1.0000     2.73785E-03
 STRESS PERIOD TIME 6.56640E+06 1.09440E+05  1824.0      76.000     0.20808    
         TOTAL TIME 1.52928E+07 2.54880E+05  4248.0      177.00     0.48460    
1

 SOLVING FOR HEAD 

    ------------------------------------------------
       NWT REQUIRED            3 OUTER ITERATIONS 
       AND A TOTAL OF          3 INNER ITERATIONS.
    ------------------------------------------------

 OUTPUT CONTROL FOR STRESS PERIOD    3   TIME STEP   77
    SAVE HEAD FOR ALL LAYERS
    SAVE DRAWDOWN FOR ALL LAYERS
    SAVE BUDGET
    PRINT HEAD FOR ALL LAYERS
    PRINT BUDGET
1
              HEAD IN LAYER   1 AT END OF TIME STEP  77 IN STRESS PERIOD    3
  ---------------------------------------------------------------------------

            1           2           3           4           5           6           7           8           9          10
           11          12          13          14          15          16          17          18          19          20
 ........................................................................................................................
   1    0.000       0.000       0.000       0.000       0.000       7.241       7.235       7.259       7.272       7.284    
        7.307       7.387       7.608       7.816       7.603       7.380       7.317       7.312       0.000       0.000    
   2    0.000       0.000       0.000       0.000       7.304       7.314       7.289       7.340       7.343       7.349    
        7.365       7.426       7.600       7.818       7.566       7.353       7.310       7.313       0.000       0.000    
   3    0.000       0.000       0.000       0.000       7.427       7.515       7.549       7.548       7.528       7.525    
        7.530       7.555       7.628       7.819       7.512       7.291       7.303       7.319       0.000       0.000    
   4    0.000       0.000       0.000       7.616       7.637       7.816       7.814       7.815       7.818       7.817    
        7.817       7.814       7.739       7.822       7.510       7.347       7.327       7.339       0.000       0.000    
   5    0.000       0.000       7.822       7.809       7.823       7.814       7.660       7.587       7.553       7.560    
        7.624       7.815       7.822       7.805       7.492       7.369       7.353       7.369       7.391       0.000    
   6    0.000       7.822       7.824       7.820       7.770       7.590       7.466       7.407       7.383       7.385    
        7.431       7.517       7.538       7.513       7.405       7.364       7.372       7.388       7.397       0.000    
   7    0.000       7.551       7.550       7.541       7.503       7.423       7.363       7.332       7.313       7.299    
        7.332       7.374       7.389       7.378       7.342       7.359       7.385       7.404       0.000       0.000    
   8    0.000       7.404       7.396       7.393       7.379       7.353       7.332       7.316       7.291       7.233    
        7.299       7.331       7.342       7.332       7.282       7.358       7.399       7.424       0.000       0.000    
   9    0.000       0.000       7.346       7.346       7.344       7.338       7.332       7.325       7.311       7.294    
        7.315       7.333       7.344       7.346       7.345       7.383       7.419       7.450       7.484       7.501    
  10    0.000       0.000       7.337       7.339       7.340       7.340       7.338       7.333       7.325       7.320    
        7.329       7.341       7.351       7.360       7.371       7.399       7.431       7.460       7.486       7.501    

 HEAD WILL BE SAVED ON UNIT   51 AT END OF TIME STEP   77, STRESS PERIOD    3

 DRAWDOWN WILL BE SAVED ON UNIT   52 AT END OF TIME STEP   77, STRESS PERIOD    3
1
  VOLUMETRIC BUDGET FOR ENTIRE MODEL AT END OF TIME STEP   77, STRESS PERIOD   3
  ------------------------------------------------------------------------------

     CUMULATIVE VOLUMES      L**3       RATES FOR THIS TIME STEP      L**3/T
     ------------------                 ------------------------

           IN:                                      IN:
           ---                                      ---
             STORAGE =       15142.6777               STORAGE =           7.5426
       CONSTANT HEAD =           0.0000         CONSTANT HEAD =           0.0000
               WELLS =           0.0000                 WELLS =           0.0000
       RIVER LEAKAGE =     1019625.1250         RIVER LEAKAGE =        1989.5863
            RECHARGE =       88505.2031              RECHARGE =         364.9565

            TOTAL IN =     1123273.0000              TOTAL IN =        2362.0854

          OUT:                                     OUT:
          ----                                     ----
             STORAGE =     1082925.3750               STORAGE =        2183.3018
       CONSTANT HEAD =           0.0000         CONSTANT HEAD =           0.0000
               WELLS =       39429.0000                 WELLS =         179.3290
       RIVER LEAKAGE =        1080.1012         RIVER LEAKAGE =           0.0000
            RECHARGE =           0.0000              RECHARGE =           0.0000

           TOTAL OUT =     1123434.5000             TOTAL OUT =        2362.6309

            IN - OUT =        -161.5000              IN - OUT =          -0.5454

 PERCENT DISCREPANCY =          -0.01     PERCENT DISCREPANCY =          -0.02






         TIME SUMMARY AT END OF TIME STEP   77 IN STRESS PERIOD    3
                    SECONDS     MINUTES      HOURS       DAYS        YEARS
                    -----------------------------------------------------------
   TIME STEP LENGTH  86400.      1440.0      24.000      1.0000     2.73785E-03
 STRESS PERIOD TIME 6.65280E+06 1.10880E+05  1848.0      77.000     0.21081    
         TOTAL TIME 1.53792E+07 2.56320E+05  4272.0      178.00     0.48734    
1

 SOLVING FOR HEAD 

    ------------------------------------------------
       NWT REQUIRED            3 OUTER ITERATIONS 
       AND A TOTAL OF          3 INNER ITERATIONS.
    ------------------------------------------------

 OUTPUT CONTROL FOR STRESS PERIOD    3   TIME STEP   78
    SAVE HEAD FOR ALL LAYERS
    SAVE DRAWDOWN FOR ALL LAYERS
    SAVE BUDGET
    PRINT HEAD FOR ALL LAYERS
    PRINT BUDGET
1
              HEAD IN LAYER   1 AT END OF TIME STEP  78 IN STRESS PERIOD    3
  ---------------------------------------------------------------------------

            1           2           3           4           5           6           7           8           9          10
           11          12          13          14          15          16          17          18          19          20
 ........................................................................................................................
   1    0.000       0.000       0.000       0.000       0.000       7.242       7.236       7.259       7.273       7.284    
        7.308       7.388       7.609       7.816       7.604       7.380       7.318       7.312       0.000       0.000    
   2    0.000       0.000       0.000       0.000       7.305       7.314       7.290       7.341       7.344       7.350    
        7.366       7.427       7.601       7.818       7.567       7.354       7.311       7.313       0.000       0.000    
   3    0.000       0.000       0.000       0.000       7.428       7.515       7.550       7.549       7.529       7.525    
        7.531       7.556       7.629       7.819       7.512       7.292       7.303       7.319       0.000       0.000    
   4    0.000       0.000       0.000       7.617       7.638       7.816       7.814       7.815       7.818       7.817    
        7.817       7.814       7.740       7.822       7.510       7.348       7.328       7.339       0.000       0.000    
   5    0.000       0.000       7.822       7.809       7.823       7.814       7.661       7.588       7.553       7.561    
        7.625       7.815       7.822       7.805       7.493       7.369       7.353       7.369       7.391       0.000    
   6    0.000       7.822       7.824       7.820       7.770       7.591       7.467       7.408       7.384       7.386    
        7.432       7.517       7.538       7.514       7.405       7.364       7.372       7.388       7.397       0.000    
   7    0.000       7.551       7.551       7.542       7.504       7.423       7.364       7.333       7.313       7.299    
        7.333       7.374       7.389       7.378       7.342       7.359       7.385       7.404       0.000       0.000    
   8    0.000       7.405       7.397       7.394       7.379       7.353       7.332       7.316       7.292       7.233    
        7.299       7.331       7.343       7.332       7.282       7.358       7.399       7.424       0.000       0.000    
   9    0.000       0.000       7.346       7.346       7.344       7.338       7.333       7.325       7.311       7.294    
        7.315       7.334       7.344       7.346       7.345       7.383       7.419       7.450       7.484       7.501    
  10    0.000       0.000       7.337       7.339       7.340       7.340       7.338       7.333       7.325       7.320    
        7.329       7.341       7.351       7.360       7.371       7.399       7.431       7.460       7.486       7.501    

 HEAD WILL BE SAVED ON UNIT   51 AT END OF TIME STEP   78, STRESS PERIOD    3

 DRAWDOWN WILL BE SAVED ON UNIT   52 AT END OF TIME STEP   78, STRESS PERIOD    3
1
  VOLUMETRIC BUDGET FOR ENTIRE MODEL AT END OF TIME STEP   78, STRESS PERIOD   3
  ------------------------------------------------------------------------------

     CUMULATIVE VOLUMES      L**3       RATES FOR THIS TIME STEP      L**3/T
     ------------------                 ------------------------

           IN:                                      IN:
           ---                                      ---
             STORAGE =       15150.1045               STORAGE =           7.4269
       CONSTANT HEAD =           0.0000         CONSTANT HEAD =           0.0000
               WELLS =           0.0000                 WELLS =           0.0000
       RIVER LEAKAGE =     1021608.3125         RIVER LEAKAGE =        1983.1639
            RECHARGE =       88870.1562              RECHARGE =         364.9565

            TOTAL IN =     1125628.6250              TOTAL IN =        2355.5474

          OUT:                                     OUT:
          ----                                     ----
             STORAGE =     1085102.1250               STORAGE =        2176.7622
       CONSTANT HEAD =           0.0000         CONSTANT HEAD =           0.0000
               WELLS =       39608.3281                 WELLS =         179.3290
       RIVER LEAKAGE =        1080.1012         RIVER LEAKAGE =           0.0000
            RECHARGE =           0.0000              RECHARGE =           0.0000

           TOTAL OUT =     1125790.6250             TOTAL OUT =        2356.0913

            IN - OUT =        -162.0000              IN - OUT =          -0.5439

 PERCENT DISCREPANCY =          -0.01     PERCENT DISCREPANCY =          -0.02






         TIME SUMMARY AT END OF TIME STEP   78 IN STRESS PERIOD    3
                    SECONDS     MINUTES      HOURS       DAYS        YEARS
                    -----------------------------------------------------------
   TIME STEP LENGTH  86400.      1440.0      24.000      1.0000     2.73785E-03
 STRESS PERIOD TIME 6.73920E+06 1.12320E+05  1872.0      78.000     0.21355    
         TOTAL TIME 1.54656E+07 2.57760E+05  4296.0      179.00     0.49008    
1

 SOLVING FOR HEAD 

    ------------------------------------------------
       NWT REQUIRED            3 OUTER ITERATIONS 
       AND A TOTAL OF          3 INNER ITERATIONS.
    ------------------------------------------------

 OUTPUT CONTROL FOR STRESS PERIOD    3   TIME STEP   79
    SAVE HEAD FOR ALL LAYERS
    SAVE DRAWDOWN FOR ALL LAYERS
    SAVE BUDGET
    PRINT HEAD FOR ALL LAYERS
    PRINT BUDGET
1
              HEAD IN LAYER   1 AT END OF TIME STEP  79 IN STRESS PERIOD    3
  ---------------------------------------------------------------------------

            1           2           3           4           5           6           7           8           9          10
           11          12          13          14          15          16          17          18          19          20
 ........................................................................................................................
   1    0.000       0.000       0.000       0.000       0.000       7.242       7.237       7.260       7.273       7.285    
        7.308       7.389       7.610       7.817       7.605       7.381       7.318       7.312       0.000       0.000    
   2    0.000       0.000       0.000       0.000       7.305       7.315       7.291       7.342       7.345       7.350    
        7.367       7.428       7.602       7.818       7.568       7.354       7.311       7.313       0.000       0.000    
   3    0.000       0.000       0.000       0.000       7.429       7.516       7.550       7.550       7.530       7.526    
        7.532       7.557       7.630       7.819       7.513       7.292       7.304       7.319       0.000       0.000    
   4    0.000       0.000       0.000       7.619       7.639       7.816       7.814       7.815       7.818       7.817    
        7.817       7.814       7.740       7.822       7.511       7.348       7.328       7.340       0.000       0.000    
   5    0.000       0.000       7.822       7.809       7.823       7.814       7.661       7.588       7.554       7.562    
        7.626       7.815       7.822       7.805       7.493       7.370       7.353       7.369       7.391       0.000    
   6    0.000       7.822       7.824       7.820       7.771       7.591       7.468       7.409       7.384       7.387    
        7.432       7.518       7.539       7.514       7.406       7.364       7.372       7.388       7.397       0.000    
   7    0.000       7.552       7.551       7.542       7.504       7.424       7.365       7.333       7.313       7.299    
        7.333       7.375       7.390       7.379       7.343       7.359       7.385       7.404       0.000       0.000    
   8    0.000       7.406       7.398       7.394       7.380       7.353       7.333       7.317       7.292       7.234    
        7.299       7.332       7.343       7.333       7.283       7.358       7.399       7.424       0.000       0.000    
   9    0.000       0.000       7.346       7.347       7.344       7.339       7.333       7.325       7.311       7.294    
        7.315       7.334       7.344       7.346       7.345       7.383       7.419       7.450       7.484       7.501    
  10    0.000       0.000       7.337       7.339       7.340       7.340       7.338       7.333       7.325       7.320    
        7.329       7.341       7.351       7.360       7.371       7.399       7.431       7.460       7.486       7.501    

 HEAD WILL BE SAVED ON UNIT   51 AT END OF TIME STEP   79, STRESS PERIOD    3

 DRAWDOWN WILL BE SAVED ON UNIT   52 AT END OF TIME STEP   79, STRESS PERIOD    3
1
  VOLUMETRIC BUDGET FOR ENTIRE MODEL AT END OF TIME STEP   79, STRESS PERIOD   3
  ------------------------------------------------------------------------------

     CUMULATIVE VOLUMES      L**3       RATES FOR THIS TIME STEP      L**3/T
     ------------------                 ------------------------

           IN:                                      IN:
           ---                                      ---
             STORAGE =       15157.4150               STORAGE =           7.3101
       CONSTANT HEAD =           0.0000         CONSTANT HEAD =           0.0000
               WELLS =           0.0000                 WELLS =           0.0000
       RIVER LEAKAGE =     1023585.1250         RIVER LEAKAGE =        1976.7830
            RECHARGE =       89235.1094              RECHARGE =         364.9565

            TOTAL IN =     1127977.6250              TOTAL IN =        2349.0496

          OUT:                                     OUT:
          ----                                     ----
             STORAGE =     1087272.3750               STORAGE =        2170.2627
       CONSTANT HEAD =           0.0000         CONSTANT HEAD =           0.0000
               WELLS =       39787.6562                 WELLS =         179.3290
       RIVER LEAKAGE =        1080.1012         RIVER LEAKAGE =           0.0000
            RECHARGE =           0.0000              RECHARGE =           0.0000

           TOTAL OUT =     1128140.1250             TOTAL OUT =        2349.5918

            IN - OUT =        -162.5000              IN - OUT =          -0.5422

 PERCENT DISCREPANCY =          -0.01     PERCENT DISCREPANCY =          -0.02






         TIME SUMMARY AT END OF TIME STEP   79 IN STRESS PERIOD    3
                    SECONDS     MINUTES      HOURS       DAYS        YEARS
                    -----------------------------------------------------------
   TIME STEP LENGTH  86400.      1440.0      24.000      1.0000     2.73785E-03
 STRESS PERIOD TIME 6.82560E+06 1.13760E+05  1896.0      79.000     0.21629    
         TOTAL TIME 1.55520E+07 2.59200E+05  4320.0      180.00     0.49281    
1

 SOLVING FOR HEAD 

    ------------------------------------------------
       NWT REQUIRED            3 OUTER ITERATIONS 
       AND A TOTAL OF          3 INNER ITERATIONS.
    ------------------------------------------------

 OUTPUT CONTROL FOR STRESS PERIOD    3   TIME STEP   80
    SAVE HEAD FOR ALL LAYERS
    SAVE DRAWDOWN FOR ALL LAYERS
    SAVE BUDGET
    PRINT HEAD FOR ALL LAYERS
    PRINT BUDGET
1
              HEAD IN LAYER   1 AT END OF TIME STEP  80 IN STRESS PERIOD    3
  ---------------------------------------------------------------------------

            1           2           3           4           5           6           7           8           9          10
           11          12          13          14          15          16          17          18          19          20
 ........................................................................................................................
   1    0.000       0.000       0.000       0.000       0.000       7.243       7.237       7.260       7.274       7.285    
        7.309       7.390       7.611       7.817       7.605       7.382       7.318       7.312       0.000       0.000    
   2    0.000       0.000       0.000       0.000       7.306       7.316       7.292       7.343       7.345       7.351    
        7.368       7.429       7.603       7.818       7.568       7.355       7.311       7.313       0.000       0.000    
   3    0.000       0.000       0.000       0.000       7.430       7.517       7.551       7.550       7.531       7.527    
        7.533       7.558       7.631       7.819       7.514       7.293       7.304       7.319       0.000       0.000    
   4    0.000       0.000       0.000       7.620       7.640       7.816       7.814       7.815       7.818       7.817    
        7.817       7.814       7.741       7.822       7.512       7.349       7.328       7.340       0.000       0.000    
   5    0.000       0.000       7.822       7.809       7.823       7.814       7.662       7.589       7.555       7.562    
        7.626       7.815       7.822       7.805       7.494       7.370       7.354       7.369       7.391       0.000    
   6    0.000       7.822       7.824       7.820       7.771       7.592       7.469       7.410       7.385       7.387    
        7.433       7.519       7.540       7.515       7.406       7.365       7.372       7.388       7.397       0.000    
   7    0.000       7.553       7.552       7.543       7.505       7.425       7.365       7.334       7.314       7.300    
        7.334       7.375       7.390       7.379       7.343       7.359       7.385       7.404       0.000       0.000    
   8    0.000       7.407       7.398       7.395       7.380       7.354       7.333       7.317       7.292       7.234    
        7.300       7.332       7.343       7.333       7.283       7.358       7.399       7.424       0.000       0.000    
   9    0.000       0.000       7.347       7.347       7.344       7.339       7.333       7.325       7.311       7.294    
        7.315       7.334       7.344       7.346       7.345       7.383       7.419       7.450       7.484       7.500    
  10    0.000       0.000       7.338       7.339       7.340       7.340       7.338       7.333       7.325       7.320    
        7.329       7.341       7.351       7.360       7.371       7.399       7.431       7.460       7.486       7.501    

 HEAD WILL BE SAVED ON UNIT   51 AT END OF TIME STEP   80, STRESS PERIOD    3

 DRAWDOWN WILL BE SAVED ON UNIT   52 AT END OF TIME STEP   80, STRESS PERIOD    3
1
  VOLUMETRIC BUDGET FOR ENTIRE MODEL AT END OF TIME STEP   80, STRESS PERIOD   3
  ------------------------------------------------------------------------------

     CUMULATIVE VOLUMES      L**3       RATES FOR THIS TIME STEP      L**3/T
     ------------------                 ------------------------

           IN:                                      IN:
           ---                                      ---
             STORAGE =       15164.6074               STORAGE =           7.1928
       CONSTANT HEAD =           0.0000         CONSTANT HEAD =           0.0000
               WELLS =           0.0000                 WELLS =           0.0000
       RIVER LEAKAGE =     1025555.5625         RIVER LEAKAGE =        1970.4539
            RECHARGE =       89600.0625              RECHARGE =         364.9565

            TOTAL IN =     1130320.2500              TOTAL IN =        2342.6030

          OUT:                                     OUT:
          ----                                     ----
             STORAGE =     1089436.2500               STORAGE =        2163.8145
       CONSTANT HEAD =           0.0000         CONSTANT HEAD =           0.0000
               WELLS =       39966.9844                 WELLS =         179.3290
       RIVER LEAKAGE =        1080.1012         RIVER LEAKAGE =           0.0000
            RECHARGE =           0.0000              RECHARGE =           0.0000

           TOTAL OUT =     1130483.3750             TOTAL OUT =        2343.1436

            IN - OUT =        -163.1250              IN - OUT =          -0.5405

 PERCENT DISCREPANCY =          -0.01     PERCENT DISCREPANCY =          -0.02






         TIME SUMMARY AT END OF TIME STEP   80 IN STRESS PERIOD    3
                    SECONDS     MINUTES      HOURS       DAYS        YEARS
                    -----------------------------------------------------------
   TIME STEP LENGTH  86400.      1440.0      24.000      1.0000     2.73785E-03
 STRESS PERIOD TIME 6.91200E+06 1.15200E+05  1920.0      80.000     0.21903    
         TOTAL TIME 1.56384E+07 2.60640E+05  4344.0      181.00     0.49555    
1

 SOLVING FOR HEAD 

    ------------------------------------------------
       NWT REQUIRED            3 OUTER ITERATIONS 
       AND A TOTAL OF          3 INNER ITERATIONS.
    ------------------------------------------------

 OUTPUT CONTROL FOR STRESS PERIOD    3   TIME STEP   81
    SAVE HEAD FOR ALL LAYERS
    SAVE DRAWDOWN FOR ALL LAYERS
    SAVE BUDGET
    PRINT HEAD FOR ALL LAYERS
    PRINT BUDGET
1
              HEAD IN LAYER   1 AT END OF TIME STEP  81 IN STRESS PERIOD    3
  ---------------------------------------------------------------------------

            1           2           3           4           5           6           7           8           9          10
           11          12          13          14          15          16          17          18          19          20
 ........................................................................................................................
   1    0.000       0.000       0.000       0.000       0.000       7.243       7.238       7.261       7.274       7.286    
        7.310       7.391       7.612       7.817       7.606       7.383       7.319       7.312       0.000       0.000    
   2    0.000       0.000       0.000       0.000       7.307       7.317       7.293       7.343       7.346       7.352    
        7.369       7.430       7.604       7.818       7.569       7.356       7.311       7.313       0.000       0.000    
   3    0.000       0.000       0.000       0.000       7.432       7.518       7.552       7.551       7.531       7.528    
        7.533       7.559       7.632       7.820       7.515       7.294       7.304       7.319       0.000       0.000    
   4    0.000       0.000       0.000       7.621       7.640       7.816       7.814       7.815       7.818       7.817    
        7.817       7.814       7.742       7.822       7.513       7.349       7.328       7.340       0.000       0.000    
   5    0.000       0.000       7.822       7.809       7.823       7.814       7.662       7.590       7.556       7.563    
        7.627       7.815       7.822       7.805       7.495       7.371       7.354       7.369       7.391       0.000    
   6    0.000       7.822       7.824       7.820       7.771       7.593       7.470       7.411       7.386       7.388    
        7.434       7.519       7.540       7.515       7.407       7.365       7.372       7.388       7.397       0.000    
   7    0.000       7.554       7.553       7.544       7.506       7.426       7.366       7.334       7.314       7.300    
        7.334       7.376       7.391       7.380       7.343       7.359       7.385       7.404       0.000       0.000    
   8    0.000       7.407       7.399       7.395       7.381       7.354       7.333       7.317       7.292       7.234    
        7.300       7.332       7.343       7.333       7.283       7.358       7.399       7.424       0.000       0.000    
   9    0.000       0.000       7.347       7.347       7.345       7.339       7.333       7.325       7.311       7.294    
        7.315       7.334       7.344       7.346       7.345       7.383       7.419       7.450       7.484       7.500    
  10    0.000       0.000       7.338       7.339       7.340       7.340       7.338       7.333       7.325       7.320    
        7.329       7.341       7.351       7.360       7.371       7.399       7.431       7.460       7.486       7.501    

 HEAD WILL BE SAVED ON UNIT   51 AT END OF TIME STEP   81, STRESS PERIOD    3

 DRAWDOWN WILL BE SAVED ON UNIT   52 AT END OF TIME STEP   81, STRESS PERIOD    3
1
  VOLUMETRIC BUDGET FOR ENTIRE MODEL AT END OF TIME STEP   81, STRESS PERIOD   3
  ------------------------------------------------------------------------------

     CUMULATIVE VOLUMES      L**3       RATES FOR THIS TIME STEP      L**3/T
     ------------------                 ------------------------

           IN:                                      IN:
           ---                                      ---
             STORAGE =       15171.6816               STORAGE =           7.0746
       CONSTANT HEAD =           0.0000         CONSTANT HEAD =           0.0000
               WELLS =           0.0000                 WELLS =           0.0000
       RIVER LEAKAGE =     1027519.7500         RIVER LEAKAGE =        1964.1616
            RECHARGE =       89965.0156              RECHARGE =         364.9565

            TOTAL IN =     1132656.5000              TOTAL IN =        2336.1926

          OUT:                                     OUT:
          ----                                     ----
             STORAGE =     1091593.6250               STORAGE =        2157.4026
       CONSTANT HEAD =           0.0000         CONSTANT HEAD =           0.0000
               WELLS =       40146.3125                 WELLS =         179.3290
       RIVER LEAKAGE =        1080.1012         RIVER LEAKAGE =           0.0000
            RECHARGE =           0.0000              RECHARGE =           0.0000

           TOTAL OUT =     1132820.1250             TOTAL OUT =        2336.7317

            IN - OUT =        -163.6250              IN - OUT =          -0.5391

 PERCENT DISCREPANCY =          -0.01     PERCENT DISCREPANCY =          -0.02






         TIME SUMMARY AT END OF TIME STEP   81 IN STRESS PERIOD    3
                    SECONDS     MINUTES      HOURS       DAYS        YEARS
                    -----------------------------------------------------------
   TIME STEP LENGTH  86400.      1440.0      24.000      1.0000     2.73785E-03
 STRESS PERIOD TIME 6.99840E+06 1.16640E+05  1944.0      81.000     0.22177    
         TOTAL TIME 1.57248E+07 2.62080E+05  4368.0      182.00     0.49829    
1

 SOLVING FOR HEAD 

    ------------------------------------------------
       NWT REQUIRED            3 OUTER ITERATIONS 
       AND A TOTAL OF          3 INNER ITERATIONS.
    ------------------------------------------------

 OUTPUT CONTROL FOR STRESS PERIOD    3   TIME STEP   82
    SAVE HEAD FOR ALL LAYERS
    SAVE DRAWDOWN FOR ALL LAYERS
    SAVE BUDGET
    PRINT HEAD FOR ALL LAYERS
    PRINT BUDGET
1
              HEAD IN LAYER   1 AT END OF TIME STEP  82 IN STRESS PERIOD    3
  ---------------------------------------------------------------------------

            1           2           3           4           5           6           7           8           9          10
           11          12          13          14          15          16          17          18          19          20
 ........................................................................................................................
   1    0.000       0.000       0.000       0.000       0.000       7.244       7.238       7.261       7.275       7.286    
        7.311       7.392       7.612       7.817       7.607       7.383       7.319       7.312       0.000       0.000    
   2    0.000       0.000       0.000       0.000       7.308       7.317       7.294       7.344       7.347       7.353    
        7.370       7.431       7.605       7.818       7.570       7.357       7.312       7.313       0.000       0.000    
   3    0.000       0.000       0.000       0.000       7.433       7.518       7.552       7.552       7.532       7.528    
        7.534       7.560       7.633       7.820       7.516       7.294       7.304       7.319       0.000       0.000    
   4    0.000       0.000       0.000       7.622       7.641       7.816       7.814       7.815       7.818       7.817    
        7.817       7.814       7.742       7.822       7.513       7.350       7.328       7.340       0.000       0.000    
   5    0.000       0.000       7.822       7.809       7.823       7.814       7.663       7.591       7.557       7.564    
        7.628       7.815       7.822       7.805       7.495       7.371       7.354       7.369       7.391       0.000    
   6    0.000       7.822       7.824       7.820       7.771       7.593       7.471       7.411       7.387       7.389    
        7.435       7.520       7.541       7.516       7.407       7.365       7.372       7.388       7.397       0.000    
   7    0.000       7.555       7.554       7.544       7.506       7.426       7.367       7.335       7.314       7.301    
        7.335       7.376       7.391       7.380       7.344       7.359       7.385       7.404       0.000       0.000    
   8    0.000       7.408       7.400       7.396       7.381       7.355       7.333       7.317       7.292       7.234    
        7.300       7.332       7.343       7.333       7.283       7.358       7.399       7.424       0.000       0.000    
   9    0.000       0.000       7.347       7.347       7.345       7.339       7.333       7.325       7.311       7.294    
        7.315       7.334       7.344       7.346       7.345       7.383       7.419       7.450       7.484       7.500    
  10    0.000       0.000       7.338       7.339       7.340       7.340       7.338       7.333       7.325       7.320    
        7.329       7.341       7.351       7.360       7.371       7.399       7.431       7.460       7.486       7.501    

 HEAD WILL BE SAVED ON UNIT   51 AT END OF TIME STEP   82, STRESS PERIOD    3

 DRAWDOWN WILL BE SAVED ON UNIT   52 AT END OF TIME STEP   82, STRESS PERIOD    3
1
  VOLUMETRIC BUDGET FOR ENTIRE MODEL AT END OF TIME STEP   82, STRESS PERIOD   3
  ------------------------------------------------------------------------------

     CUMULATIVE VOLUMES      L**3       RATES FOR THIS TIME STEP      L**3/T
     ------------------                 ------------------------

           IN:                                      IN:
           ---                                      ---
             STORAGE =       15178.6396               STORAGE =           6.9576
       CONSTANT HEAD =           0.0000         CONSTANT HEAD =           0.0000
               WELLS =           0.0000                 WELLS =           0.0000
       RIVER LEAKAGE =     1029477.6875         RIVER LEAKAGE =        1957.9169
            RECHARGE =       90329.9688              RECHARGE =         364.9565

            TOTAL IN =     1134986.2500              TOTAL IN =        2329.8311

          OUT:                                     OUT:
          ----                                     ----
             STORAGE =     1093744.6250               STORAGE =        2151.0393
       CONSTANT HEAD =           0.0000         CONSTANT HEAD =           0.0000
               WELLS =       40325.6406                 WELLS =         179.3290
       RIVER LEAKAGE =        1080.1012         RIVER LEAKAGE =           0.0000
            RECHARGE =           0.0000              RECHARGE =           0.0000

           TOTAL OUT =     1135150.3750             TOTAL OUT =        2330.3684

            IN - OUT =        -164.1250              IN - OUT =          -0.5374

 PERCENT DISCREPANCY =          -0.01     PERCENT DISCREPANCY =          -0.02






         TIME SUMMARY AT END OF TIME STEP   82 IN STRESS PERIOD    3
                    SECONDS     MINUTES      HOURS       DAYS        YEARS
                    -----------------------------------------------------------
   TIME STEP LENGTH  86400.      1440.0      24.000      1.0000     2.73785E-03
 STRESS PERIOD TIME 7.08480E+06 1.18080E+05  1968.0      82.000     0.22450    
         TOTAL TIME 1.58112E+07 2.63520E+05  4392.0      183.00     0.50103    
1

 SOLVING FOR HEAD 

    ------------------------------------------------
       NWT REQUIRED            3 OUTER ITERATIONS 
       AND A TOTAL OF          3 INNER ITERATIONS.
    ------------------------------------------------

 OUTPUT CONTROL FOR STRESS PERIOD    3   TIME STEP   83
    SAVE HEAD FOR ALL LAYERS
    SAVE DRAWDOWN FOR ALL LAYERS
    SAVE BUDGET
    PRINT HEAD FOR ALL LAYERS
    PRINT BUDGET
1
              HEAD IN LAYER   1 AT END OF TIME STEP  83 IN STRESS PERIOD    3
  ---------------------------------------------------------------------------

            1           2           3           4           5           6           7           8           9          10
           11          12          13          14          15          16          17          18          19          20
 ........................................................................................................................
   1    0.000       0.000       0.000       0.000       0.000       7.244       7.239       7.262       7.275       7.287    
        7.311       7.393       7.613       7.817       7.607       7.384       7.319       7.312       0.000       0.000    
   2    0.000       0.000       0.000       0.000       7.309       7.318       7.294       7.345       7.348       7.353    
        7.371       7.432       7.606       7.818       7.570       7.357       7.312       7.313       0.000       0.000    
   3    0.000       0.000       0.000       0.000       7.434       7.519       7.553       7.552       7.533       7.529    
        7.535       7.561       7.634       7.820       7.516       7.295       7.305       7.319       0.000       0.000    
   4    0.000       0.000       0.000       7.624       7.642       7.816       7.814       7.815       7.818       7.817    
        7.817       7.814       7.743       7.822       7.514       7.351       7.329       7.340       0.000       0.000    
   5    0.000       0.000       7.823       7.809       7.823       7.814       7.664       7.591       7.557       7.565    
        7.628       7.815       7.822       7.805       7.496       7.372       7.354       7.369       7.391       0.000    
   6    0.000       7.822       7.824       7.820       7.771       7.594       7.472       7.412       7.388       7.390    
        7.436       7.520       7.541       7.516       7.408       7.366       7.372       7.388       7.397       0.000    
   7    0.000       7.555       7.554       7.545       7.507       7.427       7.367       7.335       7.315       7.301    
        7.335       7.377       7.392       7.381       7.344       7.359       7.385       7.404       0.000       0.000    
   8    0.000       7.409       7.401       7.397       7.382       7.355       7.334       7.317       7.292       7.235    
        7.300       7.333       7.344       7.333       7.283       7.358       7.399       7.424       0.000       0.000    
   9    0.000       0.000       7.347       7.348       7.345       7.339       7.333       7.325       7.311       7.294    
        7.315       7.334       7.344       7.346       7.345       7.383       7.419       7.450       7.484       7.500    
  10    0.000       0.000       7.338       7.339       7.340       7.340       7.338       7.333       7.325       7.320    
        7.329       7.341       7.351       7.360       7.371       7.399       7.431       7.460       7.486       7.501    

 HEAD WILL BE SAVED ON UNIT   51 AT END OF TIME STEP   83, STRESS PERIOD    3

 DRAWDOWN WILL BE SAVED ON UNIT   52 AT END OF TIME STEP   83, STRESS PERIOD    3
1
  VOLUMETRIC BUDGET FOR ENTIRE MODEL AT END OF TIME STEP   83, STRESS PERIOD   3
  ------------------------------------------------------------------------------

     CUMULATIVE VOLUMES      L**3       RATES FOR THIS TIME STEP      L**3/T
     ------------------                 ------------------------

           IN:                                      IN:
           ---                                      ---
             STORAGE =       15185.4893               STORAGE =           6.8498
       CONSTANT HEAD =           0.0000         CONSTANT HEAD =           0.0000
               WELLS =           0.0000                 WELLS =           0.0000
       RIVER LEAKAGE =     1031429.3750         RIVER LEAKAGE =        1951.7172
            RECHARGE =       90694.9219              RECHARGE =         364.9565

            TOTAL IN =     1137309.7500              TOTAL IN =        2323.5234

          OUT:                                     OUT:
          ----                                     ----
             STORAGE =     1095889.3750               STORAGE =        2144.7302
       CONSTANT HEAD =           0.0000         CONSTANT HEAD =           0.0000
               WELLS =       40504.9688                 WELLS =         179.3290
       RIVER LEAKAGE =        1080.1012         RIVER LEAKAGE =           0.0000
            RECHARGE =           0.0000              RECHARGE =           0.0000

           TOTAL OUT =     1137474.5000             TOTAL OUT =        2324.0593

            IN - OUT =        -164.7500              IN - OUT =          -0.5359

 PERCENT DISCREPANCY =          -0.01     PERCENT DISCREPANCY =          -0.02






         TIME SUMMARY AT END OF TIME STEP   83 IN STRESS PERIOD    3
                    SECONDS     MINUTES      HOURS       DAYS        YEARS
                    -----------------------------------------------------------
   TIME STEP LENGTH  86400.      1440.0      24.000      1.0000     2.73785E-03
 STRESS PERIOD TIME 7.17120E+06 1.19520E+05  1992.0      83.000     0.22724    
         TOTAL TIME 1.58976E+07 2.64960E+05  4416.0      184.00     0.50376    
1

 SOLVING FOR HEAD 

    ------------------------------------------------
       NWT REQUIRED            3 OUTER ITERATIONS 
       AND A TOTAL OF          3 INNER ITERATIONS.
    ------------------------------------------------

 OUTPUT CONTROL FOR STRESS PERIOD    3   TIME STEP   84
    SAVE HEAD FOR ALL LAYERS
    SAVE DRAWDOWN FOR ALL LAYERS
    SAVE BUDGET
    PRINT HEAD FOR ALL LAYERS
    PRINT BUDGET
1
              HEAD IN LAYER   1 AT END OF TIME STEP  84 IN STRESS PERIOD    3
  ---------------------------------------------------------------------------

            1           2           3           4           5           6           7           8           9          10
           11          12          13          14          15          16          17          18          19          20
 ........................................................................................................................
   1    0.000       0.000       0.000       0.000       0.000       7.245       7.239       7.262       7.276       7.287    
        7.312       7.394       7.614       7.817       7.608       7.385       7.319       7.312       0.000       0.000    
   2    0.000       0.000       0.000       0.000       7.310       7.319       7.295       7.346       7.348       7.354    
        7.372       7.433       7.607       7.818       7.571       7.358       7.312       7.313       0.000       0.000    
   3    0.000       0.000       0.000       0.000       7.435       7.520       7.554       7.553       7.534       7.530    
        7.536       7.562       7.635       7.820       7.517       7.296       7.305       7.319       0.000       0.000    
   4    0.000       0.000       0.000       7.625       7.643       7.816       7.814       7.815       7.818       7.817    
        7.817       7.814       7.743       7.822       7.515       7.351       7.329       7.340       0.000       0.000    
   5    0.000       0.000       7.823       7.809       7.823       7.814       7.664       7.592       7.558       7.566    
        7.629       7.815       7.822       7.805       7.496       7.372       7.354       7.369       7.391       0.000    
   6    0.000       7.822       7.824       7.820       7.771       7.595       7.473       7.413       7.388       7.391    
        7.436       7.521       7.542       7.517       7.408       7.366       7.372       7.388       7.397       0.000    
   7    0.000       7.556       7.555       7.546       7.508       7.428       7.368       7.336       7.315       7.302    
        7.336       7.377       7.392       7.381       7.344       7.360       7.385       7.404       0.000       0.000    
   8    0.000       7.410       7.401       7.397       7.382       7.356       7.334       7.317       7.292       7.235    
        7.300       7.333       7.344       7.334       7.283       7.358       7.399       7.424       0.000       0.000    
   9    0.000       0.000       7.348       7.348       7.345       7.339       7.333       7.325       7.311       7.295    
        7.315       7.334       7.344       7.346       7.345       7.383       7.419       7.450       7.484       7.500    
  10    0.000       0.000       7.338       7.339       7.340       7.340       7.338       7.333       7.325       7.320    
        7.329       7.341       7.351       7.360       7.371       7.399       7.431       7.460       7.486       7.501    

 HEAD WILL BE SAVED ON UNIT   51 AT END OF TIME STEP   84, STRESS PERIOD    3

 DRAWDOWN WILL BE SAVED ON UNIT   52 AT END OF TIME STEP   84, STRESS PERIOD    3
1
  VOLUMETRIC BUDGET FOR ENTIRE MODEL AT END OF TIME STEP   84, STRESS PERIOD   3
  ------------------------------------------------------------------------------

     CUMULATIVE VOLUMES      L**3       RATES FOR THIS TIME STEP      L**3/T
     ------------------                 ------------------------

           IN:                                      IN:
           ---                                      ---
             STORAGE =       15192.2305               STORAGE =           6.7412
       CONSTANT HEAD =           0.0000         CONSTANT HEAD =           0.0000
               WELLS =           0.0000                 WELLS =           0.0000
       RIVER LEAKAGE =     1033374.9375         RIVER LEAKAGE =        1945.5641
            RECHARGE =       91059.8750              RECHARGE =         364.9565

            TOTAL IN =     1139627.0000              TOTAL IN =        2317.2617

          OUT:                                     OUT:
          ----                                     ----
             STORAGE =     1098027.8750               STORAGE =        2138.4670
       CONSTANT HEAD =           0.0000         CONSTANT HEAD =           0.0000
               WELLS =       40684.2969                 WELLS =         179.3290
       RIVER LEAKAGE =        1080.1012         RIVER LEAKAGE =           0.0000
            RECHARGE =           0.0000              RECHARGE =           0.0000

           TOTAL OUT =     1139792.2500             TOTAL OUT =        2317.7961

            IN - OUT =        -165.2500              IN - OUT =          -0.5344

 PERCENT DISCREPANCY =          -0.01     PERCENT DISCREPANCY =          -0.02






         TIME SUMMARY AT END OF TIME STEP   84 IN STRESS PERIOD    3
                    SECONDS     MINUTES      HOURS       DAYS        YEARS
                    -----------------------------------------------------------
   TIME STEP LENGTH  86400.      1440.0      24.000      1.0000     2.73785E-03
 STRESS PERIOD TIME 7.25760E+06 1.20960E+05  2016.0      84.000     0.22998    
         TOTAL TIME 1.59840E+07 2.66400E+05  4440.0      185.00     0.50650    
1

 SOLVING FOR HEAD 

    ------------------------------------------------
       NWT REQUIRED            3 OUTER ITERATIONS 
       AND A TOTAL OF          3 INNER ITERATIONS.
    ------------------------------------------------

 OUTPUT CONTROL FOR STRESS PERIOD    3   TIME STEP   85
    SAVE HEAD FOR ALL LAYERS
    SAVE DRAWDOWN FOR ALL LAYERS
    SAVE BUDGET
    PRINT HEAD FOR ALL LAYERS
    PRINT BUDGET
1
              HEAD IN LAYER   1 AT END OF TIME STEP  85 IN STRESS PERIOD    3
  ---------------------------------------------------------------------------

            1           2           3           4           5           6           7           8           9          10
           11          12          13          14          15          16          17          18          19          20
 ........................................................................................................................
   1    0.000       0.000       0.000       0.000       0.000       7.245       7.240       7.263       7.276       7.288    
        7.313       7.395       7.615       7.817       7.609       7.385       7.320       7.313       0.000       0.000    
   2    0.000       0.000       0.000       0.000       7.310       7.320       7.296       7.347       7.349       7.355    
        7.373       7.435       7.607       7.818       7.572       7.359       7.313       7.313       0.000       0.000    
   3    0.000       0.000       0.000       0.000       7.436       7.520       7.554       7.554       7.534       7.531    
        7.537       7.563       7.636       7.820       7.518       7.296       7.305       7.319       0.000       0.000    
   4    0.000       0.000       0.000       7.626       7.644       7.816       7.814       7.815       7.818       7.817    
        7.817       7.814       7.744       7.822       7.515       7.352       7.329       7.340       0.000       0.000    
   5    0.000       0.000       7.823       7.810       7.823       7.814       7.665       7.593       7.559       7.566    
        7.630       7.815       7.822       7.805       7.497       7.372       7.354       7.369       7.391       0.000    
   6    0.000       7.822       7.824       7.820       7.771       7.595       7.474       7.414       7.389       7.391    
        7.437       7.522       7.543       7.517       7.409       7.366       7.372       7.388       7.397       0.000    
   7    0.000       7.557       7.556       7.546       7.508       7.428       7.368       7.336       7.316       7.302    
        7.336       7.378       7.393       7.382       7.345       7.360       7.385       7.404       0.000       0.000    
   8    0.000       7.411       7.402       7.398       7.383       7.356       7.334       7.318       7.293       7.235    
        7.301       7.333       7.344       7.334       7.284       7.358       7.399       7.424       0.000       0.000    
   9    0.000       0.000       7.348       7.348       7.346       7.340       7.333       7.325       7.311       7.295    
        7.316       7.334       7.344       7.346       7.345       7.383       7.419       7.450       7.484       7.500    
  10    0.000       0.000       7.338       7.339       7.340       7.340       7.338       7.333       7.325       7.320    
        7.329       7.341       7.351       7.360       7.371       7.399       7.430       7.460       7.486       7.501    

 HEAD WILL BE SAVED ON UNIT   51 AT END OF TIME STEP   85, STRESS PERIOD    3

 DRAWDOWN WILL BE SAVED ON UNIT   52 AT END OF TIME STEP   85, STRESS PERIOD    3
1
  VOLUMETRIC BUDGET FOR ENTIRE MODEL AT END OF TIME STEP   85, STRESS PERIOD   3
  ------------------------------------------------------------------------------

     CUMULATIVE VOLUMES      L**3       RATES FOR THIS TIME STEP      L**3/T
     ------------------                 ------------------------

           IN:                                      IN:
           ---                                      ---
             STORAGE =       15198.8633               STORAGE =           6.6323
       CONSTANT HEAD =           0.0000         CONSTANT HEAD =           0.0000
               WELLS =           0.0000                 WELLS =           0.0000
       RIVER LEAKAGE =     1035314.3750         RIVER LEAKAGE =        1939.4418
            RECHARGE =       91424.8281              RECHARGE =         364.9565

            TOTAL IN =     1141938.1250              TOTAL IN =        2311.0305

          OUT:                                     OUT:
          ----                                     ----
             STORAGE =     1100160.1250               STORAGE =        2132.2344
       CONSTANT HEAD =           0.0000         CONSTANT HEAD =           0.0000
               WELLS =       40863.6250                 WELLS =         179.3290
       RIVER LEAKAGE =        1080.1012         RIVER LEAKAGE =           0.0000
            RECHARGE =           0.0000              RECHARGE =           0.0000

           TOTAL OUT =     1142103.8750             TOTAL OUT =        2311.5635

            IN - OUT =        -165.7500              IN - OUT =          -0.5330

 PERCENT DISCREPANCY =          -0.01     PERCENT DISCREPANCY =          -0.02






         TIME SUMMARY AT END OF TIME STEP   85 IN STRESS PERIOD    3
                    SECONDS     MINUTES      HOURS       DAYS        YEARS
                    -----------------------------------------------------------
   TIME STEP LENGTH  86400.      1440.0      24.000      1.0000     2.73785E-03
 STRESS PERIOD TIME 7.34400E+06 1.22400E+05  2040.0      85.000     0.23272    
         TOTAL TIME 1.60704E+07 2.67840E+05  4464.0      186.00     0.50924    
1

 SOLVING FOR HEAD 

    ------------------------------------------------
       NWT REQUIRED            3 OUTER ITERATIONS 
       AND A TOTAL OF          3 INNER ITERATIONS.
    ------------------------------------------------

 OUTPUT CONTROL FOR STRESS PERIOD    3   TIME STEP   86
    SAVE HEAD FOR ALL LAYERS
    SAVE DRAWDOWN FOR ALL LAYERS
    SAVE BUDGET
    PRINT HEAD FOR ALL LAYERS
    PRINT BUDGET
1
              HEAD IN LAYER   1 AT END OF TIME STEP  86 IN STRESS PERIOD    3
  ---------------------------------------------------------------------------

            1           2           3           4           5           6           7           8           9          10
           11          12          13          14          15          16          17          18          19          20
 ........................................................................................................................
   1    0.000       0.000       0.000       0.000       0.000       7.245       7.240       7.263       7.276       7.288    
        7.313       7.396       7.615       7.817       7.609       7.386       7.320       7.313       0.000       0.000    
   2    0.000       0.000       0.000       0.000       7.311       7.320       7.297       7.347       7.350       7.356    
        7.373       7.436       7.608       7.818       7.573       7.359       7.313       7.313       0.000       0.000    
   3    0.000       0.000       0.000       0.000       7.437       7.521       7.555       7.554       7.535       7.531    
        7.538       7.564       7.637       7.820       7.519       7.297       7.305       7.319       0.000       0.000    
   4    0.000       0.000       0.000       7.627       7.644       7.816       7.814       7.815       7.818       7.817    
        7.817       7.814       7.745       7.822       7.516       7.352       7.329       7.340       0.000       0.000    
   5    0.000       0.000       7.823       7.810       7.823       7.815       7.665       7.594       7.560       7.567    
        7.630       7.815       7.822       7.805       7.497       7.373       7.355       7.369       7.391       0.000    
   6    0.000       7.822       7.824       7.820       7.772       7.596       7.474       7.415       7.390       7.392    
        7.438       7.522       7.543       7.518       7.409       7.366       7.372       7.388       7.397       0.000    
   7    0.000       7.558       7.556       7.547       7.509       7.429       7.369       7.337       7.316       7.302    
        7.337       7.378       7.393       7.382       7.345       7.360       7.385       7.404       0.000       0.000    
   8    0.000       7.412       7.403       7.398       7.384       7.356       7.335       7.318       7.293       7.235    
        7.301       7.333       7.344       7.334       7.284       7.358       7.399       7.424       0.000       0.000    
   9    0.000       0.000       7.348       7.349       7.346       7.340       7.333       7.325       7.311       7.295    
        7.316       7.334       7.344       7.346       7.345       7.383       7.419       7.450       7.484       7.500    
  10    0.000       0.000       7.338       7.340       7.340       7.340       7.338       7.333       7.325       7.320    
        7.329       7.341       7.351       7.360       7.371       7.399       7.430       7.460       7.486       7.501    

 HEAD WILL BE SAVED ON UNIT   51 AT END OF TIME STEP   86, STRESS PERIOD    3

 DRAWDOWN WILL BE SAVED ON UNIT   52 AT END OF TIME STEP   86, STRESS PERIOD    3
1
  VOLUMETRIC BUDGET FOR ENTIRE MODEL AT END OF TIME STEP   86, STRESS PERIOD   3
  ------------------------------------------------------------------------------

     CUMULATIVE VOLUMES      L**3       RATES FOR THIS TIME STEP      L**3/T
     ------------------                 ------------------------

           IN:                                      IN:
           ---                                      ---
             STORAGE =       15205.3857               STORAGE =           6.5225
       CONSTANT HEAD =           0.0000         CONSTANT HEAD =           0.0000
               WELLS =           0.0000                 WELLS =           0.0000
       RIVER LEAKAGE =     1037247.7500         RIVER LEAKAGE =        1933.3683
            RECHARGE =       91789.7812              RECHARGE =         364.9565

            TOTAL IN =     1144242.8750              TOTAL IN =        2304.8472

          OUT:                                     OUT:
          ----                                     ----
             STORAGE =     1102286.1250               STORAGE =        2126.0493
       CONSTANT HEAD =           0.0000         CONSTANT HEAD =           0.0000
               WELLS =       41042.9531                 WELLS =         179.3290
       RIVER LEAKAGE =        1080.1012         RIVER LEAKAGE =           0.0000
            RECHARGE =           0.0000              RECHARGE =           0.0000

           TOTAL OUT =     1144409.2500             TOTAL OUT =        2305.3784

            IN - OUT =        -166.3750              IN - OUT =          -0.5312

 PERCENT DISCREPANCY =          -0.01     PERCENT DISCREPANCY =          -0.02






         TIME SUMMARY AT END OF TIME STEP   86 IN STRESS PERIOD    3
                    SECONDS     MINUTES      HOURS       DAYS        YEARS
                    -----------------------------------------------------------
   TIME STEP LENGTH  86400.      1440.0      24.000      1.0000     2.73785E-03
 STRESS PERIOD TIME 7.43040E+06 1.23840E+05  2064.0      86.000     0.23546    
         TOTAL TIME 1.61568E+07 2.69280E+05  4488.0      187.00     0.51198    
1

 SOLVING FOR HEAD 

    ------------------------------------------------
       NWT REQUIRED            3 OUTER ITERATIONS 
       AND A TOTAL OF          3 INNER ITERATIONS.
    ------------------------------------------------

 OUTPUT CONTROL FOR STRESS PERIOD    3   TIME STEP   87
    SAVE HEAD FOR ALL LAYERS
    SAVE DRAWDOWN FOR ALL LAYERS
    SAVE BUDGET
    PRINT HEAD FOR ALL LAYERS
    PRINT BUDGET
1
              HEAD IN LAYER   1 AT END OF TIME STEP  87 IN STRESS PERIOD    3
  ---------------------------------------------------------------------------

            1           2           3           4           5           6           7           8           9          10
           11          12          13          14          15          16          17          18          19          20
 ........................................................................................................................
   1    0.000       0.000       0.000       0.000       0.000       7.246       7.241       7.264       7.277       7.289    
        7.314       7.397       7.616       7.817       7.610       7.387       7.320       7.313       0.000       0.000    
   2    0.000       0.000       0.000       0.000       7.312       7.321       7.298       7.348       7.350       7.357    
        7.374       7.437       7.609       7.818       7.573       7.360       7.313       7.313       0.000       0.000    
   3    0.000       0.000       0.000       0.000       7.438       7.522       7.555       7.555       7.536       7.532    
        7.538       7.565       7.638       7.820       7.519       7.298       7.306       7.319       0.000       0.000    
   4    0.000       0.000       0.000       7.629       7.645       7.816       7.814       7.815       7.818       7.817    
        7.817       7.814       7.745       7.822       7.517       7.353       7.330       7.340       0.000       0.000    
   5    0.000       0.000       7.823       7.810       7.823       7.815       7.666       7.594       7.561       7.568    
        7.631       7.816       7.822       7.805       7.498       7.373       7.355       7.369       7.391       0.000    
   6    0.000       7.822       7.824       7.820       7.772       7.597       7.475       7.416       7.391       7.393    
        7.439       7.523       7.544       7.519       7.410       7.367       7.372       7.388       7.397       0.000    
   7    0.000       7.558       7.557       7.548       7.510       7.430       7.370       7.337       7.316       7.303    
        7.337       7.379       7.394       7.383       7.345       7.360       7.385       7.404       0.000       0.000    
   8    0.000       7.413       7.403       7.399       7.384       7.357       7.335       7.318       7.293       7.235    
        7.301       7.333       7.345       7.334       7.284       7.358       7.399       7.424       0.000       0.000    
   9    0.000       0.000       7.349       7.349       7.346       7.340       7.333       7.325       7.311       7.295    
        7.316       7.334       7.344       7.346       7.345       7.383       7.419       7.450       7.484       7.500    
  10    0.000       0.000       7.338       7.340       7.341       7.340       7.338       7.333       7.325       7.320    
        7.329       7.341       7.351       7.360       7.371       7.399       7.430       7.460       7.486       7.501    

 HEAD WILL BE SAVED ON UNIT   51 AT END OF TIME STEP   87, STRESS PERIOD    3

 DRAWDOWN WILL BE SAVED ON UNIT   52 AT END OF TIME STEP   87, STRESS PERIOD    3
1
  VOLUMETRIC BUDGET FOR ENTIRE MODEL AT END OF TIME STEP   87, STRESS PERIOD   3
  ------------------------------------------------------------------------------

     CUMULATIVE VOLUMES      L**3       RATES FOR THIS TIME STEP      L**3/T
     ------------------                 ------------------------

           IN:                                      IN:
           ---                                      ---
             STORAGE =       15211.8018               STORAGE =           6.4156
       CONSTANT HEAD =           0.0000         CONSTANT HEAD =           0.0000
               WELLS =           0.0000                 WELLS =           0.0000
       RIVER LEAKAGE =     1039175.0625         RIVER LEAKAGE =        1927.3302
            RECHARGE =       92154.7344              RECHARGE =         364.9565

            TOTAL IN =     1146541.6250              TOTAL IN =        2298.7024

          OUT:                                     OUT:
          ----                                     ----
             STORAGE =     1104406.0000               STORAGE =        2119.9028
       CONSTANT HEAD =           0.0000         CONSTANT HEAD =           0.0000
               WELLS =       41222.2812                 WELLS =         179.3290
       RIVER LEAKAGE =        1080.1012         RIVER LEAKAGE =           0.0000
            RECHARGE =           0.0000              RECHARGE =           0.0000

           TOTAL OUT =     1146708.3750             TOTAL OUT =        2299.2319

            IN - OUT =        -166.7500              IN - OUT =          -0.5295

 PERCENT DISCREPANCY =          -0.01     PERCENT DISCREPANCY =          -0.02






         TIME SUMMARY AT END OF TIME STEP   87 IN STRESS PERIOD    3
                    SECONDS     MINUTES      HOURS       DAYS        YEARS
                    -----------------------------------------------------------
   TIME STEP LENGTH  86400.      1440.0      24.000      1.0000     2.73785E-03
 STRESS PERIOD TIME 7.51680E+06 1.25280E+05  2088.0      87.000     0.23819    
         TOTAL TIME 1.62432E+07 2.70720E+05  4512.0      188.00     0.51472    
1

 SOLVING FOR HEAD 

    ------------------------------------------------
       NWT REQUIRED            3 OUTER ITERATIONS 
       AND A TOTAL OF          3 INNER ITERATIONS.
    ------------------------------------------------

 OUTPUT CONTROL FOR STRESS PERIOD    3   TIME STEP   88
    SAVE HEAD FOR ALL LAYERS
    SAVE DRAWDOWN FOR ALL LAYERS
    SAVE BUDGET
    PRINT HEAD FOR ALL LAYERS
    PRINT BUDGET
1
              HEAD IN LAYER   1 AT END OF TIME STEP  88 IN STRESS PERIOD    3
  ---------------------------------------------------------------------------

            1           2           3           4           5           6           7           8           9          10
           11          12          13          14          15          16          17          18          19          20
 ........................................................................................................................
   1    0.000       0.000       0.000       0.000       0.000       7.246       7.241       7.264       7.277       7.289    
        7.315       7.398       7.617       7.817       7.610       7.387       7.321       7.313       0.000       0.000    
   2    0.000       0.000       0.000       0.000       7.313       7.322       7.298       7.349       7.351       7.357    
        7.375       7.438       7.610       7.818       7.574       7.361       7.313       7.314       0.000       0.000    
   3    0.000       0.000       0.000       0.000       7.439       7.522       7.556       7.556       7.537       7.533    
        7.539       7.566       7.640       7.820       7.520       7.298       7.306       7.320       0.000       0.000    
   4    0.000       0.000       0.000       7.630       7.646       7.816       7.814       7.815       7.818       7.817    
        7.817       7.814       7.746       7.822       7.517       7.353       7.330       7.340       0.000       0.000    
   5    0.000       0.000       7.823       7.810       7.823       7.815       7.667       7.595       7.561       7.569    
        7.632       7.816       7.822       7.805       7.499       7.374       7.355       7.370       7.391       0.000    
   6    0.000       7.822       7.824       7.820       7.772       7.597       7.476       7.416       7.391       7.394    
        7.439       7.524       7.544       7.519       7.410       7.367       7.373       7.388       7.397       0.000    
   7    0.000       7.559       7.558       7.548       7.510       7.431       7.370       7.338       7.317       7.303    
        7.338       7.379       7.395       7.383       7.346       7.360       7.385       7.404       0.000       0.000    
   8    0.000       7.414       7.404       7.400       7.385       7.357       7.335       7.318       7.293       7.236    
        7.301       7.334       7.345       7.335       7.284       7.358       7.399       7.424       0.000       0.000    
   9    0.000       0.000       7.349       7.349       7.346       7.340       7.333       7.325       7.311       7.295    
        7.316       7.334       7.344       7.346       7.345       7.383       7.419       7.450       7.484       7.500    
  10    0.000       0.000       7.339       7.340       7.341       7.340       7.338       7.333       7.325       7.320    
        7.329       7.341       7.351       7.360       7.371       7.399       7.430       7.460       7.486       7.501    

 HEAD WILL BE SAVED ON UNIT   51 AT END OF TIME STEP   88, STRESS PERIOD    3

 DRAWDOWN WILL BE SAVED ON UNIT   52 AT END OF TIME STEP   88, STRESS PERIOD    3
1
  VOLUMETRIC BUDGET FOR ENTIRE MODEL AT END OF TIME STEP   88, STRESS PERIOD   3
  ------------------------------------------------------------------------------

     CUMULATIVE VOLUMES      L**3       RATES FOR THIS TIME STEP      L**3/T
     ------------------                 ------------------------

           IN:                                      IN:
           ---                                      ---
             STORAGE =       15218.1172               STORAGE =           6.3156
       CONSTANT HEAD =           0.0000         CONSTANT HEAD =           0.0000
               WELLS =           0.0000                 WELLS =           0.0000
       RIVER LEAKAGE =     1041096.3750         RIVER LEAKAGE =        1921.3362
            RECHARGE =       92519.6875              RECHARGE =         364.9565

            TOTAL IN =     1148834.2500              TOTAL IN =        2292.6082

          OUT:                                     OUT:
          ----                                     ----
             STORAGE =     1106519.7500               STORAGE =        2113.8074
       CONSTANT HEAD =           0.0000         CONSTANT HEAD =           0.0000
               WELLS =       41401.6094                 WELLS =         179.3290
       RIVER LEAKAGE =        1080.1012         RIVER LEAKAGE =           0.0000
            RECHARGE =           0.0000              RECHARGE =           0.0000

           TOTAL OUT =     1149001.5000             TOTAL OUT =        2293.1365

            IN - OUT =        -167.2500              IN - OUT =          -0.5283

 PERCENT DISCREPANCY =          -0.01     PERCENT DISCREPANCY =          -0.02






         TIME SUMMARY AT END OF TIME STEP   88 IN STRESS PERIOD    3
                    SECONDS     MINUTES      HOURS       DAYS        YEARS
                    -----------------------------------------------------------
   TIME STEP LENGTH  86400.      1440.0      24.000      1.0000     2.73785E-03
 STRESS PERIOD TIME 7.60320E+06 1.26720E+05  2112.0      88.000     0.24093    
         TOTAL TIME 1.63296E+07 2.72160E+05  4536.0      189.00     0.51745    
1

 SOLVING FOR HEAD 

    ------------------------------------------------
       NWT REQUIRED            3 OUTER ITERATIONS 
       AND A TOTAL OF          3 INNER ITERATIONS.
    ------------------------------------------------

 OUTPUT CONTROL FOR STRESS PERIOD    3   TIME STEP   89
    SAVE HEAD FOR ALL LAYERS
    SAVE DRAWDOWN FOR ALL LAYERS
    SAVE BUDGET
    PRINT HEAD FOR ALL LAYERS
    PRINT BUDGET
1
              HEAD IN LAYER   1 AT END OF TIME STEP  89 IN STRESS PERIOD    3
  ---------------------------------------------------------------------------

            1           2           3           4           5           6           7           8           9          10
           11          12          13          14          15          16          17          18          19          20
 ........................................................................................................................
   1    0.000       0.000       0.000       0.000       0.000       7.247       7.242       7.265       7.278       7.290    
        7.315       7.399       7.618       7.817       7.611       7.388       7.321       7.313       0.000       0.000    
   2    0.000       0.000       0.000       0.000       7.314       7.323       7.299       7.350       7.352       7.358    
        7.376       7.439       7.611       7.818       7.575       7.361       7.314       7.314       0.000       0.000    
   3    0.000       0.000       0.000       0.000       7.440       7.523       7.557       7.556       7.537       7.534    
        7.540       7.567       7.641       7.820       7.521       7.299       7.306       7.320       0.000       0.000    
   4    0.000       0.000       0.000       7.631       7.647       7.816       7.814       7.815       7.818       7.817    
        7.818       7.814       7.746       7.822       7.518       7.354       7.330       7.340       0.000       0.000    
   5    0.000       0.000       7.823       7.810       7.823       7.815       7.667       7.596       7.562       7.569    
        7.632       7.816       7.822       7.806       7.499       7.374       7.355       7.370       7.391       0.000    
   6    0.000       7.822       7.824       7.820       7.772       7.598       7.477       7.417       7.392       7.394    
        7.440       7.524       7.545       7.520       7.411       7.367       7.373       7.388       7.397       0.000    
   7    0.000       7.560       7.558       7.549       7.511       7.431       7.371       7.338       7.317       7.304    
        7.338       7.380       7.395       7.383       7.346       7.360       7.385       7.404       0.000       0.000    
   8    0.000       7.414       7.405       7.400       7.385       7.358       7.335       7.318       7.293       7.236    
        7.301       7.334       7.345       7.335       7.284       7.358       7.399       7.424       0.000       0.000    
   9    0.000       0.000       7.349       7.349       7.347       7.340       7.333       7.325       7.311       7.295    
        7.316       7.334       7.344       7.346       7.345       7.383       7.419       7.450       7.484       7.500    
  10    0.000       0.000       7.339       7.340       7.341       7.340       7.338       7.333       7.325       7.319    
        7.329       7.341       7.352       7.360       7.371       7.399       7.430       7.460       7.486       7.501    

 HEAD WILL BE SAVED ON UNIT   51 AT END OF TIME STEP   89, STRESS PERIOD    3

 DRAWDOWN WILL BE SAVED ON UNIT   52 AT END OF TIME STEP   89, STRESS PERIOD    3
1
  VOLUMETRIC BUDGET FOR ENTIRE MODEL AT END OF TIME STEP   89, STRESS PERIOD   3
  ------------------------------------------------------------------------------

     CUMULATIVE VOLUMES      L**3       RATES FOR THIS TIME STEP      L**3/T
     ------------------                 ------------------------

           IN:                                      IN:
           ---                                      ---
             STORAGE =       15224.3438               STORAGE =           6.2263
       CONSTANT HEAD =           0.0000         CONSTANT HEAD =           0.0000
               WELLS =           0.0000                 WELLS =           0.0000
       RIVER LEAKAGE =     1043011.7500         RIVER LEAKAGE =        1915.3793
            RECHARGE =       92884.6406              RECHARGE =         364.9565

            TOTAL IN =     1151120.7500              TOTAL IN =        2286.5620

          OUT:                                     OUT:
          ----                                     ----
             STORAGE =     1108627.5000               STORAGE =        2107.7598
       CONSTANT HEAD =           0.0000         CONSTANT HEAD =           0.0000
               WELLS =       41580.9375                 WELLS =         179.3290
       RIVER LEAKAGE =        1080.1012         RIVER LEAKAGE =           0.0000
            RECHARGE =           0.0000              RECHARGE =           0.0000

           TOTAL OUT =     1151288.6250             TOTAL OUT =        2287.0889

            IN - OUT =        -167.8750              IN - OUT =          -0.5269

 PERCENT DISCREPANCY =          -0.01     PERCENT DISCREPANCY =          -0.02






         TIME SUMMARY AT END OF TIME STEP   89 IN STRESS PERIOD    3
                    SECONDS     MINUTES      HOURS       DAYS        YEARS
                    -----------------------------------------------------------
   TIME STEP LENGTH  86400.      1440.0      24.000      1.0000     2.73785E-03
 STRESS PERIOD TIME 7.68960E+06 1.28160E+05  2136.0      89.000     0.24367    
         TOTAL TIME 1.64160E+07 2.73600E+05  4560.0      190.00     0.52019    
1

 SOLVING FOR HEAD 

    ------------------------------------------------
       NWT REQUIRED            3 OUTER ITERATIONS 
       AND A TOTAL OF          3 INNER ITERATIONS.
    ------------------------------------------------

 OUTPUT CONTROL FOR STRESS PERIOD    3   TIME STEP   90
    SAVE HEAD FOR ALL LAYERS
    SAVE DRAWDOWN FOR ALL LAYERS
    SAVE BUDGET
    PRINT HEAD FOR ALL LAYERS
    PRINT BUDGET
1
              HEAD IN LAYER   1 AT END OF TIME STEP  90 IN STRESS PERIOD    3
  ---------------------------------------------------------------------------

            1           2           3           4           5           6           7           8           9          10
           11          12          13          14          15          16          17          18          19          20
 ........................................................................................................................
   1    0.000       0.000       0.000       0.000       0.000       7.247       7.242       7.265       7.278       7.291    
        7.316       7.400       7.618       7.817       7.612       7.389       7.321       7.313       0.000       0.000    
   2    0.000       0.000       0.000       0.000       7.315       7.323       7.300       7.350       7.353       7.359    
        7.377       7.440       7.612       7.818       7.575       7.362       7.314       7.314       0.000       0.000    
   3    0.000       0.000       0.000       0.000       7.441       7.524       7.557       7.557       7.538       7.534    
        7.541       7.568       7.642       7.820       7.522       7.300       7.307       7.320       0.000       0.000    
   4    0.000       0.000       0.000       7.632       7.647       7.816       7.814       7.815       7.818       7.817    
        7.818       7.814       7.747       7.822       7.519       7.354       7.330       7.340       0.000       0.000    
   5    0.000       0.000       7.823       7.810       7.823       7.815       7.668       7.597       7.563       7.570    
        7.633       7.816       7.822       7.806       7.500       7.375       7.355       7.370       7.391       0.000    
   6    0.000       7.822       7.824       7.820       7.772       7.598       7.478       7.418       7.393       7.395    
        7.441       7.525       7.545       7.520       7.412       7.368       7.373       7.388       7.397       0.000    
   7    0.000       7.561       7.559       7.550       7.512       7.432       7.371       7.338       7.318       7.304    
        7.339       7.380       7.396       7.384       7.346       7.360       7.385       7.404       0.000       0.000    
   8    0.000       7.415       7.405       7.401       7.386       7.358       7.336       7.318       7.293       7.236    
        7.301       7.334       7.345       7.335       7.285       7.358       7.399       7.424       0.000       0.000    
   9    0.000       0.000       7.350       7.350       7.347       7.340       7.334       7.325       7.311       7.295    
        7.316       7.334       7.344       7.346       7.346       7.383       7.419       7.450       7.484       7.500    
  10    0.000       0.000       7.339       7.340       7.341       7.340       7.338       7.333       7.325       7.319    
        7.329       7.341       7.352       7.360       7.371       7.399       7.430       7.460       7.486       7.501    

 HEAD WILL BE SAVED ON UNIT   51 AT END OF TIME STEP   90, STRESS PERIOD    3

 DRAWDOWN WILL BE SAVED ON UNIT   52 AT END OF TIME STEP   90, STRESS PERIOD    3
1
  VOLUMETRIC BUDGET FOR ENTIRE MODEL AT END OF TIME STEP   90, STRESS PERIOD   3
  ------------------------------------------------------------------------------

     CUMULATIVE VOLUMES      L**3       RATES FOR THIS TIME STEP      L**3/T
     ------------------                 ------------------------

           IN:                                      IN:
           ---                                      ---
             STORAGE =       15230.4795               STORAGE =           6.1361
       CONSTANT HEAD =           0.0000         CONSTANT HEAD =           0.0000
               WELLS =           0.0000                 WELLS =           0.0000
       RIVER LEAKAGE =     1044921.1875         RIVER LEAKAGE =        1909.4594
            RECHARGE =       93249.5938              RECHARGE =         364.9565

            TOTAL IN =     1153401.2500              TOTAL IN =        2280.5520

          OUT:                                     OUT:
          ----                                     ----
             STORAGE =     1110729.2500               STORAGE =        2101.7483
       CONSTANT HEAD =           0.0000         CONSTANT HEAD =           0.0000
               WELLS =       41760.2656                 WELLS =         179.3290
       RIVER LEAKAGE =        1080.1012         RIVER LEAKAGE =           0.0000
            RECHARGE =           0.0000              RECHARGE =           0.0000

           TOTAL OUT =     1153569.6250             TOTAL OUT =        2281.0774

            IN - OUT =        -168.3750              IN - OUT =          -0.5254

 PERCENT DISCREPANCY =          -0.01     PERCENT DISCREPANCY =          -0.02






         TIME SUMMARY AT END OF TIME STEP   90 IN STRESS PERIOD    3
                    SECONDS     MINUTES      HOURS       DAYS        YEARS
                    -----------------------------------------------------------
   TIME STEP LENGTH  86400.      1440.0      24.000      1.0000     2.73785E-03
 STRESS PERIOD TIME 7.77600E+06 1.29600E+05  2160.0      90.000     0.24641    
         TOTAL TIME 1.65024E+07 2.75040E+05  4584.0      191.00     0.52293    
1

 SOLVING FOR HEAD 

    ------------------------------------------------
       NWT REQUIRED            3 OUTER ITERATIONS 
       AND A TOTAL OF          3 INNER ITERATIONS.
    ------------------------------------------------

 OUTPUT CONTROL FOR STRESS PERIOD    3   TIME STEP   91
    SAVE HEAD FOR ALL LAYERS
    SAVE DRAWDOWN FOR ALL LAYERS
    SAVE BUDGET
    PRINT HEAD FOR ALL LAYERS
    PRINT BUDGET
1
              HEAD IN LAYER   1 AT END OF TIME STEP  91 IN STRESS PERIOD    3
  ---------------------------------------------------------------------------

            1           2           3           4           5           6           7           8           9          10
           11          12          13          14          15          16          17          18          19          20
 ........................................................................................................................
   1    0.000       0.000       0.000       0.000       0.000       7.248       7.243       7.266       7.279       7.291    
        7.317       7.401       7.619       7.817       7.612       7.389       7.322       7.313       0.000       0.000    
   2    0.000       0.000       0.000       0.000       7.316       7.324       7.301       7.351       7.353       7.360    
        7.378       7.441       7.613       7.818       7.576       7.363       7.314       7.314       0.000       0.000    
   3    0.000       0.000       0.000       0.000       7.442       7.525       7.558       7.558       7.539       7.535    
        7.542       7.569       7.643       7.820       7.522       7.300       7.307       7.320       0.000       0.000    
   4    0.000       0.000       0.000       7.633       7.648       7.816       7.814       7.815       7.818       7.817    
        7.818       7.814       7.748       7.822       7.519       7.355       7.330       7.340       0.000       0.000    
   5    0.000       0.000       7.823       7.810       7.823       7.815       7.668       7.597       7.564       7.571    
        7.633       7.816       7.822       7.806       7.500       7.375       7.355       7.370       7.391       0.000    
   6    0.000       7.822       7.824       7.820       7.772       7.599       7.479       7.419       7.394       7.396    
        7.442       7.525       7.546       7.521       7.412       7.368       7.373       7.388       7.397       0.000    
   7    0.000       7.561       7.560       7.550       7.512       7.433       7.372       7.339       7.318       7.305    
        7.339       7.381       7.396       7.384       7.347       7.360       7.385       7.404       0.000       0.000    
   8    0.000       7.416       7.406       7.401       7.386       7.359       7.336       7.319       7.293       7.236    
        7.302       7.334       7.346       7.335       7.285       7.358       7.399       7.424       0.000       0.000    
   9    0.000       0.000       7.350       7.350       7.347       7.340       7.334       7.325       7.311       7.295    
        7.316       7.334       7.344       7.347       7.346       7.383       7.419       7.450       7.484       7.500    
  10    0.000       0.000       7.339       7.340       7.341       7.340       7.338       7.333       7.325       7.319    
        7.329       7.341       7.352       7.360       7.371       7.399       7.430       7.460       7.486       7.501    

 HEAD WILL BE SAVED ON UNIT   51 AT END OF TIME STEP   91, STRESS PERIOD    3

 DRAWDOWN WILL BE SAVED ON UNIT   52 AT END OF TIME STEP   91, STRESS PERIOD    3
1
  VOLUMETRIC BUDGET FOR ENTIRE MODEL AT END OF TIME STEP   91, STRESS PERIOD   3
  ------------------------------------------------------------------------------

     CUMULATIVE VOLUMES      L**3       RATES FOR THIS TIME STEP      L**3/T
     ------------------                 ------------------------

           IN:                                      IN:
           ---                                      ---
             STORAGE =       15236.5400               STORAGE =           6.0602
       CONSTANT HEAD =           0.0000         CONSTANT HEAD =           0.0000
               WELLS =           0.0000                 WELLS =           0.0000
       RIVER LEAKAGE =     1046824.7500         RIVER LEAKAGE =        1903.5848
            RECHARGE =       93614.5469              RECHARGE =         364.9565

            TOTAL IN =     1155675.7500              TOTAL IN =        2274.6016

          OUT:                                     OUT:
          ----                                     ----
             STORAGE =     1112825.0000               STORAGE =        2095.7961
       CONSTANT HEAD =           0.0000         CONSTANT HEAD =           0.0000
               WELLS =       41939.5938                 WELLS =         179.3290
       RIVER LEAKAGE =        1080.1012         RIVER LEAKAGE =           0.0000
            RECHARGE =           0.0000              RECHARGE =           0.0000

           TOTAL OUT =     1155844.7500             TOTAL OUT =        2275.1252

            IN - OUT =        -169.0000              IN - OUT =          -0.5237

 PERCENT DISCREPANCY =          -0.01     PERCENT DISCREPANCY =          -0.02






         TIME SUMMARY AT END OF TIME STEP   91 IN STRESS PERIOD    3
                    SECONDS     MINUTES      HOURS       DAYS        YEARS
                    -----------------------------------------------------------
   TIME STEP LENGTH  86400.      1440.0      24.000      1.0000     2.73785E-03
 STRESS PERIOD TIME 7.86240E+06 1.31040E+05  2184.0      91.000     0.24914    
         TOTAL TIME 1.65888E+07 2.76480E+05  4608.0      192.00     0.52567    
1

 SOLVING FOR HEAD 

    ------------------------------------------------
       NWT REQUIRED            3 OUTER ITERATIONS 
       AND A TOTAL OF          3 INNER ITERATIONS.
    ------------------------------------------------

 OUTPUT CONTROL FOR STRESS PERIOD    3   TIME STEP   92
    SAVE HEAD FOR ALL LAYERS
    SAVE DRAWDOWN FOR ALL LAYERS
    SAVE BUDGET
    PRINT HEAD FOR ALL LAYERS
    PRINT BUDGET
1
              HEAD IN LAYER   1 AT END OF TIME STEP  92 IN STRESS PERIOD    3
  ---------------------------------------------------------------------------

            1           2           3           4           5           6           7           8           9          10
           11          12          13          14          15          16          17          18          19          20
 ........................................................................................................................
   1    0.000       0.000       0.000       0.000       0.000       7.248       7.243       7.266       7.279       7.292    
        7.317       7.402       7.620       7.817       7.613       7.390       7.322       7.313       0.000       0.000    
   2    0.000       0.000       0.000       0.000       7.316       7.325       7.301       7.352       7.354       7.360    
        7.379       7.442       7.614       7.818       7.577       7.363       7.315       7.314       0.000       0.000    
   3    0.000       0.000       0.000       0.000       7.443       7.525       7.558       7.558       7.539       7.536    
        7.543       7.570       7.644       7.820       7.523       7.301       7.307       7.320       0.000       0.000    
   4    0.000       0.000       0.000       7.635       7.649       7.816       7.814       7.816       7.818       7.817    
        7.818       7.814       7.748       7.822       7.520       7.355       7.331       7.340       0.000       0.000    
   5    0.000       0.000       7.823       7.810       7.823       7.815       7.669       7.598       7.564       7.572    
        7.634       7.816       7.822       7.806       7.501       7.375       7.355       7.370       7.391       0.000    
   6    0.000       7.822       7.824       7.820       7.772       7.600       7.480       7.420       7.394       7.397    
        7.443       7.526       7.547       7.521       7.413       7.368       7.373       7.388       7.397       0.000    
   7    0.000       7.562       7.560       7.551       7.513       7.433       7.373       7.339       7.318       7.305    
        7.340       7.381       7.397       7.385       7.347       7.361       7.385       7.404       0.000       0.000    
   8    0.000       7.417       7.407       7.402       7.387       7.359       7.336       7.319       7.294       7.236    
        7.302       7.335       7.346       7.335       7.285       7.358       7.399       7.424       0.000       0.000    
   9    0.000       0.000       7.350       7.350       7.347       7.341       7.334       7.325       7.311       7.295    
        7.316       7.334       7.345       7.347       7.346       7.383       7.419       7.450       7.484       7.500    
  10    0.000       0.000       7.339       7.340       7.341       7.340       7.338       7.333       7.325       7.319    
        7.329       7.341       7.352       7.360       7.371       7.399       7.430       7.460       7.486       7.501    

 HEAD WILL BE SAVED ON UNIT   51 AT END OF TIME STEP   92, STRESS PERIOD    3

 DRAWDOWN WILL BE SAVED ON UNIT   52 AT END OF TIME STEP   92, STRESS PERIOD    3
1
  VOLUMETRIC BUDGET FOR ENTIRE MODEL AT END OF TIME STEP   92, STRESS PERIOD   3
  ------------------------------------------------------------------------------

     CUMULATIVE VOLUMES      L**3       RATES FOR THIS TIME STEP      L**3/T
     ------------------                 ------------------------

           IN:                                      IN:
           ---                                      ---
             STORAGE =       15242.5244               STORAGE =           5.9840
       CONSTANT HEAD =           0.0000         CONSTANT HEAD =           0.0000
               WELLS =           0.0000                 WELLS =           0.0000
       RIVER LEAKAGE =     1048722.5000         RIVER LEAKAGE =        1897.7502
            RECHARGE =       93979.5000              RECHARGE =         364.9565

            TOTAL IN =     1157944.5000              TOTAL IN =        2268.6907

          OUT:                                     OUT:
          ----                                     ----
             STORAGE =     1114914.8750               STORAGE =        2089.8838
       CONSTANT HEAD =           0.0000         CONSTANT HEAD =           0.0000
               WELLS =       42118.9219                 WELLS =         179.3290
       RIVER LEAKAGE =        1080.1012         RIVER LEAKAGE =           0.0000
            RECHARGE =           0.0000              RECHARGE =           0.0000

           TOTAL OUT =     1158113.8750             TOTAL OUT =        2269.2129

            IN - OUT =        -169.3750              IN - OUT =          -0.5222

 PERCENT DISCREPANCY =          -0.01     PERCENT DISCREPANCY =          -0.02






         TIME SUMMARY AT END OF TIME STEP   92 IN STRESS PERIOD    3
                    SECONDS     MINUTES      HOURS       DAYS        YEARS
                    -----------------------------------------------------------
   TIME STEP LENGTH  86400.      1440.0      24.000      1.0000     2.73785E-03
 STRESS PERIOD TIME 7.94880E+06 1.32480E+05  2208.0      92.000     0.25188    
         TOTAL TIME 1.66752E+07 2.77920E+05  4632.0      193.00     0.52841    
1

 SOLVING FOR HEAD 

    ------------------------------------------------
       NWT REQUIRED            3 OUTER ITERATIONS 
       AND A TOTAL OF          3 INNER ITERATIONS.
    ------------------------------------------------

 OUTPUT CONTROL FOR STRESS PERIOD    3   TIME STEP   93
    SAVE HEAD FOR ALL LAYERS
    SAVE DRAWDOWN FOR ALL LAYERS
    SAVE BUDGET
    PRINT HEAD FOR ALL LAYERS
    PRINT BUDGET
1
              HEAD IN LAYER   1 AT END OF TIME STEP  93 IN STRESS PERIOD    3
  ---------------------------------------------------------------------------

            1           2           3           4           5           6           7           8           9          10
           11          12          13          14          15          16          17          18          19          20
 ........................................................................................................................
   1    0.000       0.000       0.000       0.000       0.000       7.249       7.244       7.267       7.280       7.292    
        7.318       7.403       7.621       7.817       7.613       7.391       7.322       7.313       0.000       0.000    
   2    0.000       0.000       0.000       0.000       7.317       7.326       7.302       7.353       7.355       7.361    
        7.380       7.443       7.615       7.818       7.577       7.364       7.315       7.314       0.000       0.000    
   3    0.000       0.000       0.000       0.000       7.444       7.526       7.559       7.559       7.540       7.537    
        7.543       7.571       7.645       7.820       7.524       7.302       7.307       7.320       0.000       0.000    
   4    0.000       0.000       0.000       7.636       7.650       7.816       7.814       7.816       7.818       7.817    
        7.818       7.815       7.749       7.822       7.520       7.356       7.331       7.340       0.000       0.000    
   5    0.000       0.000       7.823       7.810       7.823       7.815       7.669       7.599       7.565       7.572    
        7.635       7.816       7.822       7.806       7.501       7.376       7.356       7.370       7.391       0.000    
   6    0.000       7.822       7.824       7.820       7.773       7.600       7.480       7.420       7.395       7.397    
        7.443       7.527       7.547       7.522       7.413       7.368       7.373       7.388       7.397       0.000    
   7    0.000       7.563       7.561       7.552       7.514       7.434       7.373       7.340       7.319       7.305    
        7.340       7.382       7.397       7.385       7.347       7.361       7.385       7.404       0.000       0.000    
   8    0.000       7.418       7.407       7.403       7.387       7.359       7.337       7.319       7.294       7.237    
        7.302       7.335       7.346       7.336       7.285       7.358       7.399       7.424       0.000       0.000    
   9    0.000       0.000       7.351       7.351       7.348       7.341       7.334       7.325       7.311       7.295    
        7.316       7.334       7.345       7.347       7.346       7.383       7.419       7.450       7.484       7.500    
  10    0.000       0.000       7.339       7.340       7.341       7.340       7.338       7.333       7.325       7.319    
        7.329       7.341       7.352       7.360       7.371       7.399       7.430       7.460       7.486       7.501    

 HEAD WILL BE SAVED ON UNIT   51 AT END OF TIME STEP   93, STRESS PERIOD    3

 DRAWDOWN WILL BE SAVED ON UNIT   52 AT END OF TIME STEP   93, STRESS PERIOD    3
1
  VOLUMETRIC BUDGET FOR ENTIRE MODEL AT END OF TIME STEP   93, STRESS PERIOD   3
  ------------------------------------------------------------------------------

     CUMULATIVE VOLUMES      L**3       RATES FOR THIS TIME STEP      L**3/T
     ------------------                 ------------------------

           IN:                                      IN:
           ---                                      ---
             STORAGE =       15248.4316               STORAGE =           5.9071
       CONSTANT HEAD =           0.0000         CONSTANT HEAD =           0.0000
               WELLS =           0.0000                 WELLS =           0.0000
       RIVER LEAKAGE =     1050614.5000         RIVER LEAKAGE =        1891.9518
            RECHARGE =       94344.4531              RECHARGE =         364.9565

            TOTAL IN =     1160207.3750              TOTAL IN =        2262.8154

          OUT:                                     OUT:
          ----                                     ----
             STORAGE =     1116998.8750               STORAGE =        2084.0071
       CONSTANT HEAD =           0.0000         CONSTANT HEAD =           0.0000
               WELLS =       42298.2500                 WELLS =         179.3290
       RIVER LEAKAGE =        1080.1012         RIVER LEAKAGE =           0.0000
            RECHARGE =           0.0000              RECHARGE =           0.0000

           TOTAL OUT =     1160377.2500             TOTAL OUT =        2263.3362

            IN - OUT =        -169.8750              IN - OUT =          -0.5208

 PERCENT DISCREPANCY =          -0.01     PERCENT DISCREPANCY =          -0.02






         TIME SUMMARY AT END OF TIME STEP   93 IN STRESS PERIOD    3
                    SECONDS     MINUTES      HOURS       DAYS        YEARS
                    -----------------------------------------------------------
   TIME STEP LENGTH  86400.      1440.0      24.000      1.0000     2.73785E-03
 STRESS PERIOD TIME 8.03520E+06 1.33920E+05  2232.0      93.000     0.25462    
         TOTAL TIME 1.67616E+07 2.79360E+05  4656.0      194.00     0.53114    
1

 SOLVING FOR HEAD 

    ------------------------------------------------
       NWT REQUIRED            3 OUTER ITERATIONS 
       AND A TOTAL OF          3 INNER ITERATIONS.
    ------------------------------------------------

 OUTPUT CONTROL FOR STRESS PERIOD    3   TIME STEP   94
    SAVE HEAD FOR ALL LAYERS
    SAVE DRAWDOWN FOR ALL LAYERS
    SAVE BUDGET
    PRINT HEAD FOR ALL LAYERS
    PRINT BUDGET
1
              HEAD IN LAYER   1 AT END OF TIME STEP  94 IN STRESS PERIOD    3
  ---------------------------------------------------------------------------

            1           2           3           4           5           6           7           8           9          10
           11          12          13          14          15          16          17          18          19          20
 ........................................................................................................................
   1    0.000       0.000       0.000       0.000       0.000       7.249       7.245       7.267       7.280       7.293    
        7.319       7.403       7.621       7.817       7.614       7.391       7.323       7.313       0.000       0.000    
   2    0.000       0.000       0.000       0.000       7.318       7.326       7.303       7.353       7.356       7.362    
        7.381       7.445       7.616       7.818       7.578       7.365       7.315       7.314       0.000       0.000    
   3    0.000       0.000       0.000       0.000       7.445       7.527       7.560       7.559       7.541       7.537    
        7.544       7.572       7.646       7.820       7.524       7.302       7.308       7.320       0.000       0.000    
   4    0.000       0.000       0.000       7.637       7.650       7.816       7.814       7.816       7.818       7.817    
        7.818       7.815       7.749       7.822       7.521       7.357       7.331       7.340       0.000       0.000    
   5    0.000       0.000       7.823       7.811       7.823       7.815       7.670       7.599       7.566       7.573    
        7.635       7.816       7.822       7.806       7.502       7.376       7.356       7.370       7.391       0.000    
   6    0.000       7.822       7.824       7.820       7.773       7.601       7.481       7.421       7.396       7.398    
        7.444       7.527       7.548       7.522       7.414       7.369       7.373       7.388       7.397       0.000    
   7    0.000       7.564       7.562       7.552       7.514       7.435       7.374       7.340       7.319       7.306    
        7.341       7.382       7.398       7.386       7.348       7.361       7.385       7.404       0.000       0.000    
   8    0.000       7.419       7.408       7.403       7.388       7.360       7.337       7.319       7.294       7.237    
        7.302       7.335       7.346       7.336       7.285       7.359       7.399       7.424       0.000       0.000    
   9    0.000       0.000       7.351       7.351       7.348       7.341       7.334       7.325       7.311       7.295    
        7.316       7.334       7.345       7.347       7.346       7.383       7.419       7.450       7.484       7.500    
  10    0.000       0.000       7.339       7.340       7.341       7.340       7.338       7.333       7.325       7.319    
        7.329       7.342       7.352       7.360       7.371       7.399       7.430       7.460       7.486       7.501    

 HEAD WILL BE SAVED ON UNIT   51 AT END OF TIME STEP   94, STRESS PERIOD    3

 DRAWDOWN WILL BE SAVED ON UNIT   52 AT END OF TIME STEP   94, STRESS PERIOD    3
1
  VOLUMETRIC BUDGET FOR ENTIRE MODEL AT END OF TIME STEP   94, STRESS PERIOD   3
  ------------------------------------------------------------------------------

     CUMULATIVE VOLUMES      L**3       RATES FOR THIS TIME STEP      L**3/T
     ------------------                 ------------------------

           IN:                                      IN:
           ---                                      ---
             STORAGE =       15254.2676               STORAGE =           5.8363
       CONSTANT HEAD =           0.0000         CONSTANT HEAD =           0.0000
               WELLS =           0.0000                 WELLS =           0.0000
       RIVER LEAKAGE =     1052500.7500         RIVER LEAKAGE =        1886.1976
            RECHARGE =       94709.4062              RECHARGE =         364.9565

            TOTAL IN =     1162464.3750              TOTAL IN =        2256.9905

          OUT:                                     OUT:
          ----                                     ----
             STORAGE =     1119077.0000               STORAGE =        2078.1807
       CONSTANT HEAD =           0.0000         CONSTANT HEAD =           0.0000
               WELLS =       42477.5781                 WELLS =         179.3290
       RIVER LEAKAGE =        1080.1012         RIVER LEAKAGE =           0.0000
            RECHARGE =           0.0000              RECHARGE =           0.0000

           TOTAL OUT =     1162634.7500             TOTAL OUT =        2257.5098

            IN - OUT =        -170.3750              IN - OUT =          -0.5193

 PERCENT DISCREPANCY =          -0.01     PERCENT DISCREPANCY =          -0.02






         TIME SUMMARY AT END OF TIME STEP   94 IN STRESS PERIOD    3
                    SECONDS     MINUTES      HOURS       DAYS        YEARS
                    -----------------------------------------------------------
   TIME STEP LENGTH  86400.      1440.0      24.000      1.0000     2.73785E-03
 STRESS PERIOD TIME 8.12160E+06 1.35360E+05  2256.0      94.000     0.25736    
         TOTAL TIME 1.68480E+07 2.80800E+05  4680.0      195.00     0.53388    
1

 SOLVING FOR HEAD 

    ------------------------------------------------
       NWT REQUIRED            3 OUTER ITERATIONS 
       AND A TOTAL OF          3 INNER ITERATIONS.
    ------------------------------------------------

 OUTPUT CONTROL FOR STRESS PERIOD    3   TIME STEP   95
    SAVE HEAD FOR ALL LAYERS
    SAVE DRAWDOWN FOR ALL LAYERS
    SAVE BUDGET
    PRINT HEAD FOR ALL LAYERS
    PRINT BUDGET
1
              HEAD IN LAYER   1 AT END OF TIME STEP  95 IN STRESS PERIOD    3
  ---------------------------------------------------------------------------

            1           2           3           4           5           6           7           8           9          10
           11          12          13          14          15          16          17          18          19          20
 ........................................................................................................................
   1    0.000       0.000       0.000       0.000       0.000       7.250       7.245       7.268       7.281       7.293    
        7.320       7.404       7.622       7.817       7.615       7.392       7.323       7.314       0.000       0.000    
   2    0.000       0.000       0.000       0.000       7.319       7.327       7.304       7.354       7.356       7.362    
        7.381       7.446       7.617       7.818       7.579       7.365       7.316       7.314       0.000       0.000    
   3    0.000       0.000       0.000       0.000       7.446       7.527       7.560       7.560       7.541       7.538    
        7.545       7.573       7.647       7.820       7.525       7.303       7.308       7.320       0.000       0.000    
   4    0.000       0.000       0.000       7.638       7.651       7.816       7.814       7.816       7.818       7.817    
        7.818       7.815       7.750       7.822       7.522       7.357       7.331       7.340       0.000       0.000    
   5    0.000       0.000       7.823       7.811       7.823       7.815       7.670       7.600       7.567       7.574    
        7.636       7.816       7.822       7.806       7.502       7.377       7.356       7.370       7.391       0.000    
   6    0.000       7.822       7.824       7.820       7.773       7.601       7.482       7.422       7.397       7.399    
        7.445       7.528       7.548       7.523       7.414       7.369       7.373       7.388       7.397       0.000    
   7    0.000       7.564       7.562       7.553       7.515       7.435       7.375       7.341       7.320       7.306    
        7.341       7.383       7.398       7.386       7.348       7.361       7.385       7.404       0.000       0.000    
   8    0.000       7.420       7.409       7.404       7.388       7.360       7.337       7.319       7.294       7.237    
        7.303       7.335       7.347       7.336       7.286       7.359       7.399       7.424       0.000       0.000    
   9    0.000       0.000       7.351       7.351       7.348       7.341       7.334       7.325       7.311       7.295    
        7.316       7.335       7.345       7.347       7.346       7.383       7.419       7.450       7.484       7.500    
  10    0.000       0.000       7.339       7.341       7.341       7.340       7.338       7.333       7.325       7.319    
        7.329       7.342       7.352       7.360       7.371       7.399       7.430       7.460       7.486       7.501    

 HEAD WILL BE SAVED ON UNIT   51 AT END OF TIME STEP   95, STRESS PERIOD    3

 DRAWDOWN WILL BE SAVED ON UNIT   52 AT END OF TIME STEP   95, STRESS PERIOD    3
1
  VOLUMETRIC BUDGET FOR ENTIRE MODEL AT END OF TIME STEP   95, STRESS PERIOD   3
  ------------------------------------------------------------------------------

     CUMULATIVE VOLUMES      L**3       RATES FOR THIS TIME STEP      L**3/T
     ------------------                 ------------------------

           IN:                                      IN:
           ---                                      ---
             STORAGE =       15260.0332               STORAGE =           5.7655
       CONSTANT HEAD =           0.0000         CONSTANT HEAD =           0.0000
               WELLS =           0.0000                 WELLS =           0.0000
       RIVER LEAKAGE =     1054381.2500         RIVER LEAKAGE =        1880.4789
            RECHARGE =       95074.3594              RECHARGE =         364.9565

            TOTAL IN =     1164715.6250              TOTAL IN =        2251.2009

          OUT:                                     OUT:
          ----                                     ----
             STORAGE =     1121149.3750               STORAGE =        2072.3896
       CONSTANT HEAD =           0.0000         CONSTANT HEAD =           0.0000
               WELLS =       42656.9062                 WELLS =         179.3290
       RIVER LEAKAGE =        1080.1012         RIVER LEAKAGE =           0.0000
            RECHARGE =           0.0000              RECHARGE =           0.0000

           TOTAL OUT =     1164886.3750             TOTAL OUT =        2251.7188

            IN - OUT =        -170.7500              IN - OUT =          -0.5178

 PERCENT DISCREPANCY =          -0.01     PERCENT DISCREPANCY =          -0.02






         TIME SUMMARY AT END OF TIME STEP   95 IN STRESS PERIOD    3
                    SECONDS     MINUTES      HOURS       DAYS        YEARS
                    -----------------------------------------------------------
   TIME STEP LENGTH  86400.      1440.0      24.000      1.0000     2.73785E-03
 STRESS PERIOD TIME 8.20800E+06 1.36800E+05  2280.0      95.000     0.26010    
         TOTAL TIME 1.69344E+07 2.82240E+05  4704.0      196.00     0.53662    
1

 SOLVING FOR HEAD 

    ------------------------------------------------
       NWT REQUIRED            3 OUTER ITERATIONS 
       AND A TOTAL OF          3 INNER ITERATIONS.
    ------------------------------------------------

 OUTPUT CONTROL FOR STRESS PERIOD    3   TIME STEP   96
    SAVE HEAD FOR ALL LAYERS
    SAVE DRAWDOWN FOR ALL LAYERS
    SAVE BUDGET
    PRINT HEAD FOR ALL LAYERS
    PRINT BUDGET
1
              HEAD IN LAYER   1 AT END OF TIME STEP  96 IN STRESS PERIOD    3
  ---------------------------------------------------------------------------

            1           2           3           4           5           6           7           8           9          10
           11          12          13          14          15          16          17          18          19          20
 ........................................................................................................................
   1    0.000       0.000       0.000       0.000       0.000       7.250       7.246       7.268       7.281       7.294    
        7.320       7.405       7.623       7.817       7.615       7.393       7.323       7.314       0.000       0.000    
   2    0.000       0.000       0.000       0.000       7.320       7.328       7.305       7.355       7.357       7.363    
        7.382       7.447       7.618       7.818       7.579       7.366       7.316       7.314       0.000       0.000    
   3    0.000       0.000       0.000       0.000       7.446       7.528       7.561       7.561       7.542       7.539    
        7.546       7.574       7.647       7.820       7.526       7.304       7.308       7.320       0.000       0.000    
   4    0.000       0.000       0.000       7.639       7.652       7.817       7.814       7.816       7.818       7.818    
        7.818       7.815       7.750       7.822       7.522       7.358       7.332       7.340       0.000       0.000    
   5    0.000       0.000       7.823       7.811       7.823       7.815       7.671       7.601       7.567       7.575    
        7.636       7.816       7.822       7.806       7.503       7.377       7.356       7.370       7.391       0.000    
   6    0.000       7.822       7.824       7.820       7.773       7.602       7.483       7.423       7.397       7.400    
        7.446       7.528       7.549       7.523       7.415       7.369       7.373       7.388       7.397       0.000    
   7    0.000       7.565       7.563       7.553       7.516       7.436       7.375       7.341       7.320       7.307    
        7.342       7.383       7.399       7.387       7.348       7.361       7.385       7.404       0.000       0.000    
   8    0.000       7.421       7.409       7.404       7.389       7.361       7.337       7.320       7.294       7.237    
        7.303       7.335       7.347       7.336       7.286       7.359       7.399       7.424       0.000       0.000    
   9    0.000       0.000       7.352       7.352       7.348       7.341       7.334       7.325       7.311       7.295    
        7.316       7.335       7.345       7.347       7.346       7.383       7.419       7.450       7.484       7.500    
  10    0.000       0.000       7.340       7.341       7.341       7.341       7.338       7.333       7.325       7.319    
        7.329       7.342       7.352       7.360       7.371       7.399       7.430       7.460       7.486       7.500    

 HEAD WILL BE SAVED ON UNIT   51 AT END OF TIME STEP   96, STRESS PERIOD    3

 DRAWDOWN WILL BE SAVED ON UNIT   52 AT END OF TIME STEP   96, STRESS PERIOD    3
1
  VOLUMETRIC BUDGET FOR ENTIRE MODEL AT END OF TIME STEP   96, STRESS PERIOD   3
  ------------------------------------------------------------------------------

     CUMULATIVE VOLUMES      L**3       RATES FOR THIS TIME STEP      L**3/T
     ------------------                 ------------------------

           IN:                                      IN:
           ---                                      ---
             STORAGE =       15265.7275               STORAGE =           5.6940
       CONSTANT HEAD =           0.0000         CONSTANT HEAD =           0.0000
               WELLS =           0.0000                 WELLS =           0.0000
       RIVER LEAKAGE =     1056256.0000         RIVER LEAKAGE =        1874.7812
            RECHARGE =       95439.3125              RECHARGE =         364.9565

            TOTAL IN =     1166961.0000              TOTAL IN =        2245.4319

          OUT:                                     OUT:
          ----                                     ----
             STORAGE =     1123216.0000               STORAGE =        2066.6191
       CONSTANT HEAD =           0.0000         CONSTANT HEAD =           0.0000
               WELLS =       42836.2344                 WELLS =         179.3290
       RIVER LEAKAGE =        1080.1012         RIVER LEAKAGE =           0.0000
            RECHARGE =           0.0000              RECHARGE =           0.0000

           TOTAL OUT =     1167132.3750             TOTAL OUT =        2245.9482

            IN - OUT =        -171.3750              IN - OUT =          -0.5164

 PERCENT DISCREPANCY =          -0.01     PERCENT DISCREPANCY =          -0.02






         TIME SUMMARY AT END OF TIME STEP   96 IN STRESS PERIOD    3
                    SECONDS     MINUTES      HOURS       DAYS        YEARS
                    -----------------------------------------------------------
   TIME STEP LENGTH  86400.      1440.0      24.000      1.0000     2.73785E-03
 STRESS PERIOD TIME 8.29440E+06 1.38240E+05  2304.0      96.000     0.26283    
         TOTAL TIME 1.70208E+07 2.83680E+05  4728.0      197.00     0.53936    
1

 SOLVING FOR HEAD 

    ------------------------------------------------
       NWT REQUIRED            3 OUTER ITERATIONS 
       AND A TOTAL OF          3 INNER ITERATIONS.
    ------------------------------------------------

 OUTPUT CONTROL FOR STRESS PERIOD    3   TIME STEP   97
    SAVE HEAD FOR ALL LAYERS
    SAVE DRAWDOWN FOR ALL LAYERS
    SAVE BUDGET
    PRINT HEAD FOR ALL LAYERS
    PRINT BUDGET
1
              HEAD IN LAYER   1 AT END OF TIME STEP  97 IN STRESS PERIOD    3
  ---------------------------------------------------------------------------

            1           2           3           4           5           6           7           8           9          10
           11          12          13          14          15          16          17          18          19          20
 ........................................................................................................................
   1    0.000       0.000       0.000       0.000       0.000       7.251       7.246       7.269       7.282       7.294    
        7.321       7.406       7.624       7.817       7.616       7.393       7.324       7.314       0.000       0.000    
   2    0.000       0.000       0.000       0.000       7.321       7.329       7.305       7.356       7.358       7.364    
        7.383       7.448       7.618       7.818       7.580       7.366       7.316       7.314       0.000       0.000    
   3    0.000       0.000       0.000       0.000       7.447       7.529       7.561       7.561       7.543       7.539    
        7.547       7.575       7.648       7.820       7.527       7.304       7.308       7.320       0.000       0.000    
   4    0.000       0.000       0.000       7.640       7.653       7.817       7.814       7.816       7.818       7.818    
        7.818       7.815       7.751       7.822       7.523       7.358       7.332       7.341       0.000       0.000    
   5    0.000       0.000       7.823       7.811       7.823       7.815       7.672       7.602       7.568       7.575    
        7.637       7.816       7.822       7.806       7.504       7.377       7.356       7.370       7.391       0.000    
   6    0.000       7.822       7.824       7.820       7.773       7.603       7.484       7.424       7.398       7.401    
        7.446       7.529       7.549       7.524       7.415       7.370       7.373       7.388       7.397       0.000    
   7    0.000       7.566       7.564       7.554       7.516       7.437       7.376       7.342       7.320       7.307    
        7.342       7.384       7.399       7.387       7.349       7.361       7.386       7.404       0.000       0.000    
   8    0.000       7.421       7.410       7.405       7.389       7.361       7.338       7.320       7.294       7.237    
        7.303       7.336       7.347       7.337       7.286       7.359       7.399       7.424       0.000       0.000    
   9    0.000       0.000       7.352       7.352       7.349       7.341       7.334       7.325       7.311       7.295    
        7.316       7.335       7.345       7.347       7.346       7.383       7.419       7.450       7.484       7.500    
  10    0.000       0.000       7.340       7.341       7.341       7.341       7.338       7.333       7.325       7.319    
        7.329       7.342       7.352       7.360       7.371       7.399       7.430       7.460       7.486       7.500    

 HEAD WILL BE SAVED ON UNIT   51 AT END OF TIME STEP   97, STRESS PERIOD    3

 DRAWDOWN WILL BE SAVED ON UNIT   52 AT END OF TIME STEP   97, STRESS PERIOD    3
1
  VOLUMETRIC BUDGET FOR ENTIRE MODEL AT END OF TIME STEP   97, STRESS PERIOD   3
  ------------------------------------------------------------------------------

     CUMULATIVE VOLUMES      L**3       RATES FOR THIS TIME STEP      L**3/T
     ------------------                 ------------------------

           IN:                                      IN:
           ---                                      ---
             STORAGE =       15271.3496               STORAGE =           5.6223
       CONSTANT HEAD =           0.0000         CONSTANT HEAD =           0.0000
               WELLS =           0.0000                 WELLS =           0.0000
       RIVER LEAKAGE =     1058125.1250         RIVER LEAKAGE =        1869.1392
            RECHARGE =       95804.2656              RECHARGE =         364.9565

            TOTAL IN =     1169200.7500              TOTAL IN =        2239.7180

          OUT:                                     OUT:
          ----                                     ----
             STORAGE =     1125276.8750               STORAGE =        2060.9038
       CONSTANT HEAD =           0.0000         CONSTANT HEAD =           0.0000
               WELLS =       43015.5625                 WELLS =         179.3290
       RIVER LEAKAGE =        1080.1012         RIVER LEAKAGE =           0.0000
            RECHARGE =           0.0000              RECHARGE =           0.0000

           TOTAL OUT =     1169372.6250             TOTAL OUT =        2240.2329

            IN - OUT =        -171.8750              IN - OUT =          -0.5149

 PERCENT DISCREPANCY =          -0.01     PERCENT DISCREPANCY =          -0.02






         TIME SUMMARY AT END OF TIME STEP   97 IN STRESS PERIOD    3
                    SECONDS     MINUTES      HOURS       DAYS        YEARS
                    -----------------------------------------------------------
   TIME STEP LENGTH  86400.      1440.0      24.000      1.0000     2.73785E-03
 STRESS PERIOD TIME 8.38080E+06 1.39680E+05  2328.0      97.000     0.26557    
         TOTAL TIME 1.71072E+07 2.85120E+05  4752.0      198.00     0.54209    
1

 SOLVING FOR HEAD 

    ------------------------------------------------
       NWT REQUIRED            3 OUTER ITERATIONS 
       AND A TOTAL OF          3 INNER ITERATIONS.
    ------------------------------------------------

 OUTPUT CONTROL FOR STRESS PERIOD    3   TIME STEP   98
    SAVE HEAD FOR ALL LAYERS
    SAVE DRAWDOWN FOR ALL LAYERS
    SAVE BUDGET
    PRINT HEAD FOR ALL LAYERS
    PRINT BUDGET
1
              HEAD IN LAYER   1 AT END OF TIME STEP  98 IN STRESS PERIOD    3
  ---------------------------------------------------------------------------

            1           2           3           4           5           6           7           8           9          10
           11          12          13          14          15          16          17          18          19          20
 ........................................................................................................................
   1    0.000       0.000       0.000       0.000       0.000       7.251       7.247       7.269       7.282       7.295    
        7.322       7.407       7.624       7.817       7.616       7.394       7.324       7.314       0.000       0.000    
   2    0.000       0.000       0.000       0.000       7.322       7.329       7.306       7.356       7.358       7.365    
        7.384       7.449       7.619       7.818       7.580       7.367       7.316       7.314       0.000       0.000    
   3    0.000       0.000       0.000       0.000       7.448       7.529       7.562       7.562       7.543       7.540    
        7.547       7.576       7.649       7.820       7.527       7.305       7.309       7.320       0.000       0.000    
   4    0.000       0.000       0.000       7.642       7.653       7.817       7.814       7.816       7.818       7.818    
        7.818       7.815       7.751       7.822       7.524       7.359       7.332       7.341       0.000       0.000    
   5    0.000       0.000       7.824       7.811       7.823       7.815       7.672       7.602       7.569       7.576    
        7.637       7.816       7.822       7.806       7.504       7.378       7.356       7.370       7.391       0.000    
   6    0.000       7.822       7.824       7.820       7.773       7.603       7.485       7.424       7.399       7.401    
        7.447       7.530       7.550       7.524       7.416       7.370       7.373       7.388       7.397       0.000    
   7    0.000       7.566       7.564       7.555       7.517       7.438       7.376       7.342       7.321       7.308    
        7.342       7.384       7.400       7.387       7.349       7.362       7.386       7.404       0.000       0.000    
   8    0.000       7.422       7.411       7.405       7.390       7.361       7.338       7.320       7.295       7.238    
        7.303       7.336       7.347       7.337       7.286       7.359       7.399       7.424       0.000       0.000    
   9    0.000       0.000       7.352       7.352       7.349       7.342       7.334       7.325       7.311       7.295    
        7.316       7.335       7.345       7.347       7.346       7.383       7.419       7.450       7.484       7.500    
  10    0.000       0.000       7.340       7.341       7.342       7.341       7.338       7.333       7.325       7.319    
        7.329       7.342       7.352       7.360       7.371       7.399       7.430       7.460       7.486       7.500    

 HEAD WILL BE SAVED ON UNIT   51 AT END OF TIME STEP   98, STRESS PERIOD    3

 DRAWDOWN WILL BE SAVED ON UNIT   52 AT END OF TIME STEP   98, STRESS PERIOD    3
1
  VOLUMETRIC BUDGET FOR ENTIRE MODEL AT END OF TIME STEP   98, STRESS PERIOD   3
  ------------------------------------------------------------------------------

     CUMULATIVE VOLUMES      L**3       RATES FOR THIS TIME STEP      L**3/T
     ------------------                 ------------------------

           IN:                                      IN:
           ---                                      ---
             STORAGE =       15276.8994               STORAGE =           5.5500
       CONSTANT HEAD =           0.0000         CONSTANT HEAD =           0.0000
               WELLS =           0.0000                 WELLS =           0.0000
       RIVER LEAKAGE =     1059988.6250         RIVER LEAKAGE =        1863.5326
            RECHARGE =       96169.2188              RECHARGE =         364.9565

            TOTAL IN =     1171434.7500              TOTAL IN =        2234.0391

          OUT:                                     OUT:
          ----                                     ----
             STORAGE =     1127332.1250               STORAGE =        2055.2236
       CONSTANT HEAD =           0.0000         CONSTANT HEAD =           0.0000
               WELLS =       43194.8906                 WELLS =         179.3290
       RIVER LEAKAGE =        1080.1012         RIVER LEAKAGE =           0.0000
            RECHARGE =           0.0000              RECHARGE =           0.0000

           TOTAL OUT =     1171607.1250             TOTAL OUT =        2234.5527

            IN - OUT =        -172.3750              IN - OUT =          -0.5137

 PERCENT DISCREPANCY =          -0.01     PERCENT DISCREPANCY =          -0.02






         TIME SUMMARY AT END OF TIME STEP   98 IN STRESS PERIOD    3
                    SECONDS     MINUTES      HOURS       DAYS        YEARS
                    -----------------------------------------------------------
   TIME STEP LENGTH  86400.      1440.0      24.000      1.0000     2.73785E-03
 STRESS PERIOD TIME 8.46720E+06 1.41120E+05  2352.0      98.000     0.26831    
         TOTAL TIME 1.71936E+07 2.86560E+05  4776.0      199.00     0.54483    
1

 SOLVING FOR HEAD 

    ------------------------------------------------
       NWT REQUIRED            3 OUTER ITERATIONS 
       AND A TOTAL OF          3 INNER ITERATIONS.
    ------------------------------------------------

 OUTPUT CONTROL FOR STRESS PERIOD    3   TIME STEP   99
    SAVE HEAD FOR ALL LAYERS
    SAVE DRAWDOWN FOR ALL LAYERS
    SAVE BUDGET
    PRINT HEAD FOR ALL LAYERS
    PRINT BUDGET
1
              HEAD IN LAYER   1 AT END OF TIME STEP  99 IN STRESS PERIOD    3
  ---------------------------------------------------------------------------

            1           2           3           4           5           6           7           8           9          10
           11          12          13          14          15          16          17          18          19          20
 ........................................................................................................................
   1    0.000       0.000       0.000       0.000       0.000       7.252       7.247       7.270       7.283       7.295    
        7.322       7.408       7.625       7.817       7.617       7.395       7.324       7.314       0.000       0.000    
   2    0.000       0.000       0.000       0.000       7.322       7.330       7.307       7.357       7.359       7.365    
        7.385       7.450       7.620       7.818       7.581       7.368       7.317       7.315       0.000       0.000    
   3    0.000       0.000       0.000       0.000       7.449       7.530       7.562       7.562       7.544       7.541    
        7.548       7.576       7.650       7.820       7.528       7.306       7.309       7.320       0.000       0.000    
   4    0.000       0.000       0.000       7.643       7.654       7.817       7.814       7.816       7.818       7.818    
        7.818       7.815       7.752       7.822       7.524       7.359       7.332       7.341       0.000       0.000    
   5    0.000       0.000       7.824       7.811       7.823       7.815       7.673       7.603       7.570       7.577    
        7.638       7.816       7.822       7.806       7.505       7.378       7.357       7.370       7.391       0.000    
   6    0.000       7.822       7.824       7.820       7.773       7.604       7.485       7.425       7.400       7.402    
        7.448       7.530       7.550       7.525       7.416       7.370       7.374       7.388       7.397       0.000    
   7    0.000       7.567       7.565       7.555       7.517       7.438       7.377       7.343       7.321       7.308    
        7.343       7.385       7.400       7.388       7.349       7.362       7.386       7.404       0.000       0.000    
   8    0.000       7.423       7.411       7.406       7.390       7.362       7.338       7.320       7.295       7.238    
        7.303       7.336       7.348       7.337       7.286       7.359       7.399       7.424       0.000       0.000    
   9    0.000       0.000       7.353       7.352       7.349       7.342       7.334       7.325       7.311       7.295    
        7.316       7.335       7.345       7.347       7.346       7.383       7.419       7.450       7.484       7.500    
  10    0.000       0.000       7.340       7.341       7.342       7.341       7.338       7.333       7.325       7.319    
        7.329       7.342       7.352       7.360       7.371       7.399       7.430       7.460       7.486       7.500    

 HEAD WILL BE SAVED ON UNIT   51 AT END OF TIME STEP   99, STRESS PERIOD    3

 DRAWDOWN WILL BE SAVED ON UNIT   52 AT END OF TIME STEP   99, STRESS PERIOD    3
1
  VOLUMETRIC BUDGET FOR ENTIRE MODEL AT END OF TIME STEP   99, STRESS PERIOD   3
  ------------------------------------------------------------------------------

     CUMULATIVE VOLUMES      L**3       RATES FOR THIS TIME STEP      L**3/T
     ------------------                 ------------------------

           IN:                                      IN:
           ---                                      ---
             STORAGE =       15282.3770               STORAGE =           5.4773
       CONSTANT HEAD =           0.0000         CONSTANT HEAD =           0.0000
               WELLS =           0.0000                 WELLS =           0.0000
       RIVER LEAKAGE =     1061846.6250         RIVER LEAKAGE =        1857.9666
            RECHARGE =       96534.1719              RECHARGE =         364.9565

            TOTAL IN =     1173663.1250              TOTAL IN =        2228.4004

          OUT:                                     OUT:
          ----                                     ----
             STORAGE =     1129381.7500               STORAGE =        2049.5835
       CONSTANT HEAD =           0.0000         CONSTANT HEAD =           0.0000
               WELLS =       43374.2188                 WELLS =         179.3290
       RIVER LEAKAGE =        1080.1012         RIVER LEAKAGE =           0.0000
            RECHARGE =           0.0000              RECHARGE =           0.0000

           TOTAL OUT =     1173836.1250             TOTAL OUT =        2228.9126

            IN - OUT =        -173.0000              IN - OUT =          -0.5122

 PERCENT DISCREPANCY =          -0.01     PERCENT DISCREPANCY =          -0.02






         TIME SUMMARY AT END OF TIME STEP   99 IN STRESS PERIOD    3
                    SECONDS     MINUTES      HOURS       DAYS        YEARS
                    -----------------------------------------------------------
   TIME STEP LENGTH  86400.      1440.0      24.000      1.0000     2.73785E-03
 STRESS PERIOD TIME 8.55360E+06 1.42560E+05  2376.0      99.000     0.27105    
         TOTAL TIME 1.72800E+07 2.88000E+05  4800.0      200.00     0.54757    
1

 SOLVING FOR HEAD 

    ------------------------------------------------
       NWT REQUIRED            3 OUTER ITERATIONS 
       AND A TOTAL OF          3 INNER ITERATIONS.
    ------------------------------------------------

 OUTPUT CONTROL FOR STRESS PERIOD    3   TIME STEP  100
    SAVE HEAD FOR ALL LAYERS
    SAVE DRAWDOWN FOR ALL LAYERS
    SAVE BUDGET
    PRINT HEAD FOR ALL LAYERS
    PRINT BUDGET
1
              HEAD IN LAYER   1 AT END OF TIME STEP 100 IN STRESS PERIOD    3
  ---------------------------------------------------------------------------

            1           2           3           4           5           6           7           8           9          10
           11          12          13          14          15          16          17          18          19          20
 ........................................................................................................................
   1    0.000       0.000       0.000       0.000       0.000       7.252       7.248       7.270       7.283       7.296    
        7.323       7.409       7.626       7.817       7.618       7.395       7.324       7.314       0.000       0.000    
   2    0.000       0.000       0.000       0.000       7.323       7.331       7.308       7.358       7.360       7.366    
        7.386       7.451       7.621       7.818       7.582       7.368       7.317       7.315       0.000       0.000    
   3    0.000       0.000       0.000       0.000       7.450       7.530       7.563       7.563       7.545       7.542    
        7.549       7.577       7.651       7.820       7.529       7.306       7.309       7.321       0.000       0.000    
   4    0.000       0.000       0.000       7.644       7.655       7.817       7.815       7.816       7.818       7.818    
        7.818       7.815       7.753       7.822       7.525       7.360       7.332       7.341       0.000       0.000    
   5    0.000       0.000       7.824       7.811       7.823       7.815       7.673       7.604       7.570       7.577    
        7.639       7.816       7.822       7.806       7.505       7.379       7.357       7.370       7.391       0.000    
   6    0.000       7.822       7.824       7.820       7.773       7.604       7.486       7.426       7.400       7.403    
        7.449       7.531       7.551       7.525       7.417       7.370       7.374       7.388       7.397       0.000    
   7    0.000       7.568       7.566       7.556       7.518       7.439       7.378       7.343       7.322       7.308    
        7.343       7.385       7.401       7.388       7.350       7.362       7.386       7.404       0.000       0.000    
   8    0.000       7.424       7.412       7.407       7.391       7.362       7.339       7.320       7.295       7.238    
        7.304       7.336       7.348       7.337       7.286       7.359       7.399       7.424       0.000       0.000    
   9    0.000       0.000       7.353       7.353       7.349       7.342       7.334       7.325       7.311       7.295    
        7.316       7.335       7.345       7.347       7.346       7.383       7.419       7.450       7.484       7.500    
  10    0.000       0.000       7.340       7.341       7.342       7.341       7.338       7.333       7.325       7.319    
        7.329       7.342       7.352       7.360       7.371       7.399       7.430       7.460       7.486       7.500    

 HEAD WILL BE SAVED ON UNIT   51 AT END OF TIME STEP  100, STRESS PERIOD    3

 DRAWDOWN WILL BE SAVED ON UNIT   52 AT END OF TIME STEP  100, STRESS PERIOD    3
1
  VOLUMETRIC BUDGET FOR ENTIRE MODEL AT END OF TIME STEP  100, STRESS PERIOD   3
  ------------------------------------------------------------------------------

     CUMULATIVE VOLUMES      L**3       RATES FOR THIS TIME STEP      L**3/T
     ------------------                 ------------------------

           IN:                                      IN:
           ---                                      ---
             STORAGE =       15287.7812               STORAGE =           5.4040
       CONSTANT HEAD =           0.0000         CONSTANT HEAD =           0.0000
               WELLS =           0.0000                 WELLS =           0.0000
       RIVER LEAKAGE =     1063699.0000         RIVER LEAKAGE =        1852.4332
            RECHARGE =       96899.1250              RECHARGE =         364.9565

            TOTAL IN =     1175885.8750              TOTAL IN =        2222.7937

          OUT:                                     OUT:
          ----                                     ----
             STORAGE =     1131425.7500               STORAGE =        2043.9755
       CONSTANT HEAD =           0.0000         CONSTANT HEAD =           0.0000
               WELLS =       43553.5469                 WELLS =         179.3290
       RIVER LEAKAGE =        1080.1012         RIVER LEAKAGE =           0.0000
            RECHARGE =           0.0000              RECHARGE =           0.0000

           TOTAL OUT =     1176059.3750             TOTAL OUT =        2223.3044

            IN - OUT =        -173.5000              IN - OUT =          -0.5107

 PERCENT DISCREPANCY =          -0.01     PERCENT DISCREPANCY =          -0.02






         TIME SUMMARY AT END OF TIME STEP  100 IN STRESS PERIOD    3
                    SECONDS     MINUTES      HOURS       DAYS        YEARS
                    -----------------------------------------------------------
   TIME STEP LENGTH  86400.      1440.0      24.000      1.0000     2.73785E-03
 STRESS PERIOD TIME 8.64000E+06 1.44000E+05  2400.0      100.00     0.27379    
         TOTAL TIME 1.73664E+07 2.89440E+05  4824.0      201.00     0.55031    
1

 Run end date and time (yyyy/mm/dd hh:mm:ss): 2014/12/01 22:57:43
 Elapsed run time:  0.419 Seconds

